<?xml version="1.0" encoding="UTF-8"?>

<!-- generated on 2025-04-09 10:48:22.518155 by osmWebWizard.py v1_22_0+0002-63e50f52594
<configuration>
    <net-file value="C:\Users\Administrator\Sumo\2025-04-09-10-48-15\osm.net.xml.gz"/>
    <output-trip-file value="C:\Users\Administrator\Sumo\2025-04-09-10-48-15\osm.passenger.trips.xml"/>
    <route-file value="C:\Users\Administrator\Sumo\2025-04-09-10-48-15\osm.passenger.rou.xml"/>
    <prefix value="veh"/>
    <trip-attributes value="departLane=&quot;best&quot;"/>
    <fringe-start-attributes value="departSpeed=&quot;max&quot;"/>
    <vehicle-class value="passenger"/>
    <lanes value="True"/>
    <fringe-factor value="10"/>
    <allow-fringe.min-length value="1000.0"/>
    <via-edge-types value="highway.motorway,highway.motorway_link,highway.trunk_link,highway.primary_link,highway.secondary_link,highway.tertiary_link"/>
    <min-distance value="300.0"/>
    <min-distance.fringe value="10.0"/>
    <remove-loops value="True"/>
    <validate value="True"/>
    <insertion-density value="50.0"/>
</configuration>
-->

<!-- generated on 2025-04-09 10:48:22 by Eclipse SUMO duarouter Version 1.22.0
<duarouterConfiguration xmlns:xsi="http://www.w3.org/2001/XMLSchema-instance" xsi:noNamespaceSchemaLocation="http://sumo.dlr.de/xsd/duarouterConfiguration.xsd">

    <input>
        <net-file value="C:\Users\Administrator\Sumo\2025-04-09-10-48-15\osm.net.xml.gz"/>
        <route-files value="C:\Users\Administrator\Sumo\2025-04-09-10-48-15\osm.passenger.trips.xml"/>
    </input>

    <output>
        <output-file value="C:\Users\Administrator\Sumo\2025-04-09-10-48-15\osm.passenger.trips.xml.tmp"/>
        <alternatives-output value="NUL"/>
        <write-trips value="true"/>
    </output>

    <processing>
        <remove-loops value="true"/>
    </processing>

    <time>
        <begin value="0.0"/>
        <end value="3600.0"/>
    </time>

    <report>
        <no-warnings value="true"/>
        <ignore-errors value="true"/>
        <no-step-log value="true"/>
    </report>

</duarouterConfiguration>
-->

<routes xmlns:xsi="http://www.w3.org/2001/XMLSchema-instance" xsi:noNamespaceSchemaLocation="http://sumo.dlr.de/xsd/routes_file.xsd">
	<vType id="emergency" vClass="emergency" maxSpeed="60"/>
    <vType id="veh_passenger" vClass="passenger" maxSpeed="50"/>
    <trip id="veh0" type="veh_passenger" depart="0.00" departLane="best" departSpeed="max" from="447623861#0" to="162931629#1"/>
    <trip id="veh1" type="veh_passenger" depart="3.62" departLane="best" departSpeed="max" from="703978560#0" to="-59150323#2"/>
    <trip id="veh2" type="veh_passenger" depart="7.24" departLane="best" from="954183010#2" to="-479402133#1"/>
    <trip id="veh3" type="veh_passenger" depart="10.86" departLane="best" departSpeed="max" from="155925981#0" to="162931638#3"/>
    <trip id="veh4" type="veh_passenger" depart="14.48" departLane="best" from="1169767228#2" to="332762597#21"/>
    <trip id="veh5" type="veh_passenger" depart="18.10" departLane="best" departSpeed="max" from="447623861#0" to="38134037#3"/>
    <trip id="veh6" type="veh_passenger" depart="21.72" departLane="best" departSpeed="max" from="883126621#0" to="-1008268819#5"/>
    <trip id="veh7" type="veh_passenger" depart="25.34" departLane="best" departSpeed="max" from="883126621#0" to="598689298"/>
    <trip id="veh8" type="veh_passenger" depart="28.95" departLane="best" departSpeed="max" from="1210334157#0" to="-703978560#0"/>
    <trip id="veh9" type="veh_passenger" depart="32.57" departLane="best" from="954183036#20" to="1210334158#1"/>
    <trip id="veh10" type="veh_passenger" depart="36.19" departLane="best" from="570600511#2" to="-503707345#0"/>
    <trip id="veh11" type="veh_passenger" depart="39.81" departLane="best" departSpeed="max" from="883126623" to="400124203"/>
    <trip id="veh12" type="veh_passenger" depart="43.43" departLane="best" departSpeed="max" from="883126621#0" to="598756945"/>
    <trip id="veh13" type="veh_passenger" depart="47.05" departLane="best" from="332762597#18" to="954183037"/>
    <trip id="veh15" type="veh_passenger" depart="54.29" departLane="best" departSpeed="max" from="883126621#0" to="400124203"/>
    <trip id="veh16" type="veh_passenger" depart="57.91" departLane="best" departSpeed="max" from="883126623" to="38134037#8"/>
    <trip id="veh17" type="veh_passenger" depart="61.53" departLane="best" from="-402562120#9" to="1169767228#2"/>
    <trip id="veh23" type="veh_passenger" depart="83.25" departLane="best" from="954183036#8" to="402562120#9"/>
    <trip id="veh24" type="veh_passenger" depart="86.86" departLane="best" from="332762597#22" to="598689297"/>
    <trip id="veh25" type="veh_passenger" depart="90.48" departLane="best" departSpeed="max" from="883126623" to="684077606#2"/>
    <trip id="veh26" type="veh_passenger" depart="94.10" departLane="best" from="964350829" to="162931638#6"/>
    <trip id="veh27" type="veh_passenger" depart="97.72" departLane="best" departSpeed="max" from="1210334157#0" to="1206350890#10"/>
    <trip id="veh28" type="veh_passenger" depart="101.34" departLane="best" from="1169767228#1" to="954183036#8"/>
    <trip id="veh29" type="veh_passenger" depart="104.96" departLane="best" departSpeed="max" from="883126623" to="954183036#4"/>
    <trip id="veh30" type="veh_passenger" depart="108.58" departLane="best" departSpeed="max" from="447623861#0" to="157338935#1"/>
    <trip id="veh31" type="veh_passenger" depart="112.20" departLane="best" from="954183036#13" to="332655860#2"/>
    <trip id="veh32" type="veh_passenger" depart="115.82" departLane="best" from="332762597#23" to="1206350890#1"/>
    <trip id="veh33" type="veh_passenger" depart="119.44" departLane="best" from="332762597#9" to="954183036#18"/>
    <trip id="veh35" type="veh_passenger" depart="126.68" departLane="best" from="964350829" to="332762597#22"/>
    <trip id="veh37" type="veh_passenger" depart="133.92" departLane="best" departSpeed="max" from="-399416502#4" to="1240693325#2"/>
    <trip id="veh38" type="veh_passenger" depart="137.54" departLane="best" from="964350829" to="332762597#6"/>
    <trip id="veh39" type="veh_passenger" depart="141.15" departLane="best" from="1205661270#1" to="598756945"/>
    <trip id="veh40" type="veh_passenger" depart="144.77" departLane="best" departSpeed="max" from="486563107" to="332762597#8"/>
    <trip id="veh41" type="veh_passenger" depart="148.39" departLane="best" from="1206350890#14" to="-479402133#1"/>
    <trip id="veh43" type="veh_passenger" depart="155.63" departLane="best" from="163047072#5" to="954183036#9"/>
    <trip id="veh44" type="veh_passenger" depart="159.25" departLane="best" departSpeed="max" from="883126623" to="1206350890#1"/>
    <trip id="veh45" type="veh_passenger" depart="162.87" departLane="best" from="331329425#0" to="1169767221#1"/>
    <trip id="veh46" type="veh_passenger" depart="166.49" departLane="best" from="1206350890#8" to="402562120#9"/>
    <trip id="veh47" type="veh_passenger" depart="170.11" departLane="best" from="38134037#7" to="-703978560#0"/>
    <trip id="veh48" type="veh_passenger" depart="173.73" departLane="best" departSpeed="max" from="703978561#0" to="332762597#9"/>
    <trip id="veh49" type="veh_passenger" depart="177.35" departLane="best" departSpeed="max" from="703978561#0" to="332762597#7"/>
    <trip id="veh50" type="veh_passenger" depart="180.97" departLane="best" from="1008268815#0" to="1206350890#9"/>
    <trip id="veh51" type="veh_passenger" depart="184.59" departLane="best" from="-156770493#2" to="954183036#4"/>
    <trip id="veh52" type="veh_passenger" depart="188.21" departLane="best" departSpeed="max" from="1210334157#0" to="-29111634#0"/>
    <trip id="veh53" type="veh_passenger" depart="191.83" departLane="best" departSpeed="max" from="883126623" to="954183036#8"/>
    <trip id="veh55" type="veh_passenger" depart="199.06" departLane="best" departSpeed="max" from="703978561#0" to="-598689303#6"/>
    <trip id="veh56" type="veh_passenger" depart="202.68" departLane="best" departSpeed="max" from="164031250#0" to="38134037#4"/>
    <trip id="veh57" type="veh_passenger" depart="206.30" departLane="best" from="1206350890#14" to="954183036#14"/>
    <trip id="veh58" type="veh_passenger" depart="209.92" departLane="best" departSpeed="max" from="155925981#0" to="1169767227#1"/>
    <trip id="veh59" type="veh_passenger" depart="213.54" departLane="best" from="332762597#19" to="598756945"/>
    <trip id="veh60" type="veh_passenger" depart="217.16" departLane="best" from="1169767227#2" to="1206350890#5"/>
    <trip id="veh61" type="veh_passenger" depart="220.78" departLane="best" from="954183036#9" to="486563106"/>
    <trip id="veh62" type="veh_passenger" depart="224.40" departLane="best" from="162931638#1" to="332762597#24"/>
    <trip id="veh64" type="veh_passenger" depart="231.64" departLane="best" departSpeed="max" from="1210334157#0" to="399416502#4"/>
    <trip id="veh65" type="veh_passenger" depart="235.26" departLane="best" from="1206350890#16" to="332762597#15"/>
    <trip id="veh66" type="veh_passenger" depart="238.88" departLane="best" from="1169767229#2" to="954183036#2"/>
    <trip id="veh67" type="veh_passenger" depart="242.50" departLane="best" departSpeed="max" from="883126623" to="-37927290"/>
    <trip id="veh68" type="veh_passenger" depart="246.12" departLane="best" from="1205661270#2" to="570580858#1"/>
    <trip id="veh69" type="veh_passenger" depart="249.74" departLane="best" from="1169767228#2" to="684077606#1"/>
    <trip id="veh70" type="veh_passenger" depart="253.35" departLane="best" from="954183036#17" to="38134037#7"/>
    <trip id="veh71" type="veh_passenger" depart="256.97" departLane="best" departSpeed="max" from="164031250#0" to="684077606#8"/>
    <trip id="veh72" type="veh_passenger" depart="260.59" departLane="best" departSpeed="max" from="883126621#0" to="1169767226#0"/>
    <trip id="veh73" type="veh_passenger" depart="264.21" departLane="best" from="59150323#2" to="175975104"/>
    <trip id="veh74" type="veh_passenger" depart="267.83" departLane="best" departSpeed="max" from="155925981#0" to="332762597#10"/>
    <trip id="veh75" type="veh_passenger" depart="271.45" departLane="best" from="684077606#5" to="-570600511#2"/>
    <trip id="veh76" type="veh_passenger" depart="275.07" departLane="best" from="954183036#6" to="-503707345#0"/>
    <trip id="veh77" type="veh_passenger" depart="278.69" departLane="best" departSpeed="max" from="155925981#0" to="1210334175#0"/>
    <trip id="veh78" type="veh_passenger" depart="282.31" departLane="best" from="1169767226#2" to="29111563#1"/>
    <trip id="veh79" type="veh_passenger" depart="285.93" departLane="best" departSpeed="max" from="155925981#0" to="1206350890#12"/>
    <trip id="veh80" type="veh_passenger" depart="289.55" departLane="best" from="1206350890#10" to="954183036#25"/>
    <trip id="veh81" type="veh_passenger" depart="293.17" departLane="best" from="-162931638#5" to="954183036#12"/>
    <trip id="veh82" type="veh_passenger" depart="296.79" departLane="best" from="332762597#21" to="-29111634#0"/>
    <trip id="veh83" type="veh_passenger" depart="300.41" departLane="best" from="1169767229#2" to="954183036#25"/>
    <trip id="veh84" type="veh_passenger" depart="304.03" departLane="best" from="954183010#0" to="954183036#4"/>
    <trip id="veh85" type="veh_passenger" depart="307.64" departLane="best" departSpeed="max" from="883126623" to="1008268819#7"/>
    <trip id="veh86" type="veh_passenger" depart="311.26" departLane="best" from="-29111563#2" to="1169767227#2"/>
    <trip id="veh89" type="veh_passenger" depart="322.12" departLane="best" from="1206350890#14" to="684077606#8"/>
    <trip id="veh90" type="veh_passenger" depart="325.74" departLane="best" from="163047072#5" to="175975104"/>
    <trip id="veh91" type="veh_passenger" depart="329.36" departLane="best" from="954183036#20" to="954183037"/>
    <trip id="veh92" type="veh_passenger" depart="332.98" departLane="best" from="332762597#22" to="598756945"/>
    <trip id="veh93" type="veh_passenger" depart="336.60" departLane="best" from="1008268819#6" to="1169767229#4"/>
    <trip id="veh94" type="veh_passenger" depart="340.22" departLane="best" from="954183010#0" to="332762597#6"/>
    <trip id="veh96" type="veh_passenger" depart="347.46" departLane="best" from="331329425#2" to="954183036#0"/>
    <trip id="veh97" type="veh_passenger" depart="351.08" departLane="best" from="1008268819#7" to="954183037"/>
    <trip id="veh98" type="veh_passenger" depart="354.70" departLane="best" from="-402562120#9" to="1169767223#1"/>
    <trip id="veh99" type="veh_passenger" depart="358.32" departLane="best" from="38134037#4" to="-59150323#1"/>
    <trip id="veh100" type="veh_passenger" depart="361.93" departLane="best" from="1205661270#0" to="-598689301"/>
    <trip id="veh101" type="veh_passenger" depart="365.55" departLane="best" from="954183010#2" to="1169767229#4"/>
    <trip id="veh102" type="veh_passenger" depart="369.17" departLane="best" from="38134037#4" to="400124203"/>
    <trip id="veh103" type="veh_passenger" depart="372.79" departLane="best" departSpeed="max" from="155925981#0" to="399416502#2"/>
    <trip id="veh104" type="veh_passenger" depart="376.41" departLane="best" from="332762597#12" to="954183036#5"/>
    <trip id="veh105" type="veh_passenger" depart="380.03" departLane="best" from="1169767227#3" to="-598689303#6"/>
    <trip id="veh106" type="veh_passenger" depart="383.65" departLane="best" from="1205661270#3" to="157338935#1"/>
    <trip id="veh107" type="veh_passenger" depart="387.27" departLane="best" departSpeed="max" from="486563107" to="1206350890#2"/>
    <trip id="veh109" type="veh_passenger" depart="394.51" departLane="best" from="-402562120#2" to="332655860#2"/>
    <trip id="veh110" type="veh_passenger" depart="398.13" departLane="best" departSpeed="max" from="883126623" to="954183036#15"/>
    <trip id="veh112" type="veh_passenger" depart="405.37" departLane="best" departSpeed="max" from="883126623" to="598689298"/>
    <trip id="veh113" type="veh_passenger" depart="408.99" departLane="best" from="38134037#7" to="954183037"/>
    <trip id="veh114" type="veh_passenger" depart="412.61" departLane="best" departSpeed="max" from="447623861#0" to="-1008268819#6"/>
    <trip id="veh115" type="veh_passenger" depart="416.23" departLane="best" departSpeed="max" from="883126621#0" to="1206350890#2"/>
    <trip id="veh116" type="veh_passenger" depart="419.84" departLane="best" departSpeed="max" from="447623861#0" to="954183036#6"/>
    <trip id="veh117" type="veh_passenger" depart="423.46" departLane="best" from="-684077606#0" to="-59150323#0"/>
    <trip id="veh119" type="veh_passenger" depart="430.70" departLane="best" from="1206350890#15" to="400124203"/>
    <trip id="veh121" type="veh_passenger" depart="437.94" departLane="best" from="-402562120#6" to="1206350890#1"/>
    <trip id="veh122" type="veh_passenger" depart="441.56" departLane="best" departSpeed="max" from="29111634#0" to="954183036#2"/>
    <trip id="veh123" type="veh_passenger" depart="445.18" departLane="best" departSpeed="max" from="883126623" to="-503707345#0"/>
    <trip id="veh124" type="veh_passenger" depart="448.80" departLane="best" departSpeed="max" from="155925981#0" to="1206350890#12"/>
    <trip id="veh126" type="veh_passenger" depart="456.04" departLane="best" from="-402562120#9" to="1206350890#0"/>
    <trip id="veh127" type="veh_passenger" depart="459.66" departLane="best" departSpeed="max" from="703978560#0" to="38134037#4"/>
    <trip id="veh128" type="veh_passenger" depart="463.28" departLane="best" from="155925981#1" to="-1008268819#6"/>
    <trip id="veh129" type="veh_passenger" depart="466.90" departLane="best" from="-402562120#4" to="954183036#16"/>
    <trip id="veh130" type="veh_passenger" depart="470.52" departLane="best" from="954183036#1" to="38134037#3"/>
    <trip id="veh131" type="veh_passenger" depart="474.13" departLane="best" departSpeed="max" from="883126623" to="332762597#6"/>
    <trip id="veh132" type="veh_passenger" depart="477.75" departLane="best" from="703978560#1" to="-598689303#5"/>
    <trip id="veh133" type="veh_passenger" depart="481.37" departLane="best" departSpeed="max" from="1210334157#0" to="954183036#19"/>
    <trip id="veh134" type="veh_passenger" depart="484.99" departLane="best" departSpeed="max" from="703978561#0" to="954183036#12"/>
    <trip id="veh135" type="veh_passenger" depart="488.61" departLane="best" from="954183036#0" to="1169767227#1"/>
    <trip id="veh136" type="veh_passenger" depart="492.23" departLane="best" from="1206350890#10" to="-503707345#0"/>
    <trip id="veh137" type="veh_passenger" depart="495.85" departLane="best" from="1008268819#6" to="954183036#4"/>
    <trip id="veh138" type="veh_passenger" depart="499.47" departLane="best" departSpeed="max" from="883126621#0" to="954183036#15"/>
    <trip id="veh139" type="veh_passenger" depart="503.09" departLane="best" from="-162931638#1" to="598756945"/>
    <trip id="veh140" type="veh_passenger" depart="506.71" departLane="best" departSpeed="max" from="1210334157#0" to="954183036#4"/>
    <trip id="veh141" type="veh_passenger" depart="510.33" departLane="best" from="703978561#1" to="954183036#12"/>
    <trip id="veh142" type="veh_passenger" depart="513.95" departLane="best" departSpeed="max" from="703978561#0" to="-331329425#2"/>
    <trip id="veh143" type="veh_passenger" depart="517.57" departLane="best" departSpeed="max" from="164031250#0" to="1206350890#3"/>
    <trip id="veh144" type="veh_passenger" depart="521.19" departLane="best" departSpeed="max" from="703978561#0" to="1169767228#1"/>
    <trip id="veh145" type="veh_passenger" depart="524.81" departLane="best" departSpeed="max" from="1210334157#0" to="954183036#12"/>
    <trip id="veh146" type="veh_passenger" depart="528.42" departLane="best" from="954183010#0" to="1206350890#13"/>
    <trip id="veh147" type="veh_passenger" depart="532.04" departLane="best" departSpeed="max" from="447623861#0" to="162931638#1"/>
    <trip id="veh148" type="veh_passenger" depart="535.66" departLane="best" from="954183036#6" to="332762597#8"/>
    <trip id="veh149" type="veh_passenger" depart="539.28" departLane="best" from="954183036#18" to="-59150323#0"/>
    <trip id="veh150" type="veh_passenger" depart="542.90" departLane="best" from="1206350890#6" to="1169767221#1"/>
    <trip id="veh152" type="veh_passenger" depart="550.14" departLane="best" from="684077606#4" to="1206350890#5"/>
    <trip id="veh153" type="veh_passenger" depart="553.76" departLane="best" from="38134037#6" to="332762597#22"/>
    <trip id="veh154" type="veh_passenger" depart="557.38" departLane="best" from="1239628944" to="38134037#8"/>
    <trip id="veh155" type="veh_passenger" depart="561.00" departLane="best" from="1206350890#11" to="-598689303#1"/>
    <trip id="veh156" type="veh_passenger" depart="564.62" departLane="best" from="1008268815#1" to="954183036#25"/>
    <trip id="veh157" type="veh_passenger" depart="568.24" departLane="best" from="332762597#18" to="598756945"/>
    <trip id="veh158" type="veh_passenger" depart="571.86" departLane="best" departSpeed="max" from="703978560#0" to="-570600511#0"/>
    <trip id="veh160" type="veh_passenger" depart="579.10" departLane="best" departSpeed="max" from="1210334157#0" to="954183036#0"/>
    <trip id="veh162" type="veh_passenger" depart="586.33" departLane="best" departSpeed="max" from="1210334157#0" to="162931638#9"/>
    <trip id="veh163" type="veh_passenger" depart="589.95" departLane="best" departSpeed="max" from="155925981#0" to="1206350890#16"/>
    <trip id="veh165" type="veh_passenger" depart="597.19" departLane="best" from="954183036#18" to="-59150323#2"/>
    <trip id="veh166" type="veh_passenger" depart="600.81" departLane="best" from="954183036#1" to="400124203"/>
    <trip id="veh167" type="veh_passenger" depart="604.43" departLane="best" from="1206350890#8" to="38134037#3"/>
    <trip id="veh168" type="veh_passenger" depart="608.05" departLane="best" from="1008268815#0" to="1206350890#14"/>
    <trip id="veh169" type="veh_passenger" depart="611.67" departLane="best" from="155925981#1" to="332762597#6"/>
    <trip id="veh170" type="veh_passenger" depart="615.29" departLane="best" departSpeed="max" from="447623861#0" to="332762597#10"/>
    <trip id="veh171" type="veh_passenger" depart="618.91" departLane="best" departSpeed="max" from="703978561#0" to="1169767221#0"/>
    <trip id="veh172" type="veh_passenger" depart="622.53" departLane="best" from="503707345#3" to="332762597#23"/>
    <trip id="veh173" type="veh_passenger" depart="626.15" departLane="best" from="-402562120#5" to="1210334158#1"/>
    <trip id="veh175" type="veh_passenger" depart="633.39" departLane="best" departSpeed="max" from="486563107" to="1169767228#1"/>
    <trip id="veh176" type="veh_passenger" depart="637.01" departLane="best" from="1206350890#0" to="332762597#12"/>
    <trip id="veh177" type="veh_passenger" depart="640.62" departLane="best" departSpeed="max" from="883126623" to="399416502#3"/>
    <trip id="veh178" type="veh_passenger" depart="644.24" departLane="best" departSpeed="max" from="155925981#0" to="402562120#10"/>
    <trip id="veh179" type="veh_passenger" depart="647.86" departLane="best" departSpeed="max" from="29111634#0" to="1169767229#2"/>
    <trip id="veh180" type="veh_passenger" depart="651.48" departLane="best" departSpeed="max" from="447623861#0" to="-1008268819#1"/>
    <trip id="veh182" type="veh_passenger" depart="658.72" departLane="best" from="1169767223#1" to="954183037"/>
    <trip id="veh183" type="veh_passenger" depart="662.34" departLane="best" departSpeed="max" from="164031250#0" to="883126624#2"/>
    <trip id="veh184" type="veh_passenger" depart="665.96" departLane="best" from="486370014#0" to="954183037"/>
    <trip id="veh185" type="veh_passenger" depart="669.58" departLane="best" from="38134037#4" to="954183036#9"/>
    <trip id="veh187" type="veh_passenger" depart="676.82" departLane="best" departSpeed="max" from="883126623" to="38134037#3"/>
    <trip id="veh188" type="veh_passenger" depart="680.44" departLane="best" from="954183036#0" to="598756945"/>
    <trip id="veh189" type="veh_passenger" depart="684.06" departLane="best" from="1206350890#1" to="402562120#8"/>
    <trip id="veh190" type="veh_passenger" depart="687.68" departLane="best" departSpeed="max" from="703978561#0" to="332762597#24"/>
    <trip id="veh191" type="veh_passenger" depart="691.30" departLane="best" from="-402562120#1" to="1206350890#11"/>
    <trip id="veh192" type="veh_passenger" depart="694.92" departLane="best" from="-402562120#6" to="1206350890#14"/>
    <trip id="veh193" type="veh_passenger" depart="698.53" departLane="best" from="332762597#19" to="684077606#6"/>
    <trip id="veh194" type="veh_passenger" depart="702.15" departLane="best" from="1206350890#16" to="598689298"/>
    <trip id="veh195" type="veh_passenger" depart="705.77" departLane="best" from="570600511#1" to="-331329425#2"/>
    <trip id="veh196" type="veh_passenger" depart="709.39" departLane="best" departSpeed="max" from="155925981#0" to="1169767227#1"/>
    <trip id="veh197" type="veh_passenger" depart="713.01" departLane="best" departSpeed="max" from="155925981#0" to="1206350890#8"/>
    <trip id="veh198" type="veh_passenger" depart="716.63" departLane="best" from="332762597#9" to="598689298"/>
    <trip id="veh200" type="veh_passenger" depart="723.87" departLane="best" from="1239628943#0" to="-1008268819#5"/>
    <trip id="veh202" type="veh_passenger" depart="731.11" departLane="best" departSpeed="max" from="883126623" to="954183036#9"/>
    <trip id="veh203" type="veh_passenger" depart="734.73" departLane="best" from="332762597#2" to="400124203"/>
    <trip id="veh204" type="veh_passenger" depart="738.35" departLane="best" from="1169767229#1" to="332762597#15"/>
    <trip id="veh205" type="veh_passenger" depart="741.97" departLane="best" departSpeed="max" from="155925981#0" to="1008268819#7"/>
    <trip id="veh206" type="veh_passenger" depart="745.59" departLane="best" departSpeed="max" from="164031250#0" to="-598689303#5"/>
    <trip id="veh207" type="veh_passenger" depart="749.21" departLane="best" from="38134037#9" to="-162931638#1"/>
    <trip id="veh209" type="veh_passenger" depart="756.44" departLane="best" from="-162931638#11" to="-479402133#2"/>
    <trip id="veh210" type="veh_passenger" depart="760.06" departLane="best" from="-684077606#1" to="332762597#1"/>
    <trip id="veh212" type="veh_passenger" depart="767.30" departLane="best" departSpeed="max" from="703978561#0" to="1240693325#2"/>
    <trip id="veh213" type="veh_passenger" depart="770.92" departLane="best" departSpeed="max" from="703978561#0" to="883126624#2"/>
    <trip id="veh214" type="veh_passenger" depart="774.54" departLane="best" from="1206350890#10" to="402562120#5"/>
    <trip id="veh215" type="veh_passenger" depart="778.16" departLane="best" from="-156770493#2" to="332762597#9"/>
    <trip id="veh216" type="veh_passenger" depart="781.78" departLane="best" from="964350829" to="1210334176#1"/>
    <trip id="veh217" type="veh_passenger" depart="785.40" departLane="best" departSpeed="max" from="447623861#0" to="684077606#6"/>
    <trip id="veh218" type="veh_passenger" depart="789.02" departLane="best" from="954183036#2" to="1169767226#1"/>
    <trip id="veh221" type="veh_passenger" depart="799.88" departLane="best" from="332762597#24" to="1169767227#3"/>
    <trip id="veh224" type="veh_passenger" depart="810.73" departLane="best" departSpeed="max" from="703978560#0" to="-59150323#0"/>
    <trip id="veh226" type="veh_passenger" depart="817.97" departLane="best" departSpeed="max" from="1210334157#0" to="-59150323#2"/>
    <trip id="veh227" type="veh_passenger" depart="821.59" departLane="best" from="954183036#20" to="162931629#1"/>
    <trip id="veh229" type="veh_passenger" depart="828.83" departLane="best" departSpeed="max" from="503707345#0" to="400124203"/>
    <trip id="veh231" type="veh_passenger" depart="836.07" departLane="best" departSpeed="max" from="883126623" to="400124203"/>
    <trip id="veh233" type="veh_passenger" depart="843.31" departLane="best" departSpeed="max" from="703978561#0" to="1210334175#1"/>
    <trip id="veh234" type="veh_passenger" depart="846.93" departLane="best" from="155925981#1" to="1239628944"/>
    <trip id="veh236" type="veh_passenger" depart="854.17" departLane="best" from="-402562120#8" to="883126624#2"/>
    <trip id="veh237" type="veh_passenger" depart="857.79" departLane="best" from="570600511#2" to="175975104"/>
    <trip id="veh238" type="veh_passenger" depart="861.41" departLane="best" from="684077606#8" to="954183037"/>
    <trip id="veh239" type="veh_passenger" depart="865.02" departLane="best" from="1169767226#2" to="598756945"/>
    <trip id="veh240" type="veh_passenger" depart="868.64" departLane="best" departSpeed="max" from="883126623" to="-479402133#1"/>
    <trip id="veh242" type="veh_passenger" depart="875.88" departLane="best" departSpeed="max" from="883126623" to="1169767221#2"/>
    <trip id="veh243" type="veh_passenger" depart="879.50" departLane="best" from="1169767228#1" to="883126624#2"/>
    <trip id="veh244" type="veh_passenger" depart="883.12" departLane="best" departSpeed="max" from="1210334157#0" to="954183036#15"/>
    <trip id="veh245" type="veh_passenger" depart="886.74" departLane="best" from="503707345#4" to="1206350890#12"/>
    <trip id="veh246" type="veh_passenger" depart="890.36" departLane="best" from="503707345#3" to="598756945"/>
    <trip id="veh248" type="veh_passenger" depart="897.60" departLane="best" departSpeed="max" from="503707345#0" to="486370014#1"/>
    <trip id="veh249" type="veh_passenger" depart="901.22" departLane="best" departSpeed="max" from="29111634#0" to="883126624#1"/>
    <trip id="veh250" type="veh_passenger" depart="904.84" departLane="best" departSpeed="max" from="503707345#0" to="1206350890#4"/>
    <trip id="veh251" type="veh_passenger" depart="908.46" departLane="best" from="332762597#17" to="175975104"/>
    <trip id="veh253" type="veh_passenger" depart="915.70" departLane="best" from="570580858#1" to="1206350890#11"/>
    <trip id="veh254" type="veh_passenger" depart="919.31" departLane="best" from="1206350890#10" to="-598689303#0"/>
    <trip id="veh255" type="veh_passenger" depart="922.93" departLane="best" from="1169767226#2" to="-598689301"/>
    <trip id="veh257" type="veh_passenger" depart="930.17" departLane="best" from="1169767226#1" to="1169767227#2"/>
    <trip id="veh258" type="veh_passenger" depart="933.79" departLane="best" from="-29111563#1" to="598756945"/>
    <trip id="veh259" type="veh_passenger" depart="937.41" departLane="best" from="954183036#5" to="332762597#3"/>
    <trip id="veh260" type="veh_passenger" depart="941.03" departLane="best" from="1206350890#3" to="-503707345#0"/>
    <trip id="veh261" type="veh_passenger" depart="944.65" departLane="best" from="1169767227#1" to="1169767228#1"/>
    <trip id="veh262" type="veh_passenger" depart="948.27" departLane="best" from="1169767226#0" to="-1205661270#3"/>
    <trip id="veh263" type="veh_passenger" depart="951.89" departLane="best" from="332762597#17" to="1206350890#11"/>
    <trip id="veh264" type="veh_passenger" depart="955.51" departLane="best" from="1206350890#6" to="38134037#4"/>
    <trip id="veh265" type="veh_passenger" depart="959.13" departLane="best" departSpeed="max" from="503707345#0" to="-598689303#4"/>
    <trip id="veh266" type="veh_passenger" depart="962.75" departLane="best" departSpeed="max" from="883126623" to="332762597#18"/>