<?xml version="1.0" encoding="UTF-8"?>

<!-- generated on 2025-04-09 10:48:21.726070 by osmWebWizard.py v1_22_0+0002-63e50f52594
<configuration>
    <net-file value="C:\Users\Administrator\Sumo\2025-04-09-10-48-15\osm.net.xml.gz"/>
    <output-trip-file value="C:\Users\Administrator\Sumo\2025-04-09-10-48-15\osm.motorcycle.trips.xml"/>
    <route-file value="C:\Users\Administrator\Sumo\2025-04-09-10-48-15\osm.motorcycle.rou.xml"/>
    <prefix value="motorcycle"/>
    <trip-attributes value="departLane=&quot;best&quot;"/>
    <fringe-start-attributes value="departSpeed=&quot;max&quot;"/>
    <vehicle-class value="motorcycle"/>
    <fringe-factor value="4"/>
    <vclass value="motorcycle"/>
    <via-edge-types value="highway.motorway,highway.motorway_link,highway.trunk_link,highway.primary_link,highway.secondary_link,highway.tertiary_link"/>
    <max-distance value="1200.0"/>
    <remove-loops value="True"/>
    <validate value="True"/>
    <insertion-density value="50.0"/>
</configuration>
-->

<!-- generated on 2025-04-09 10:48:21 by Eclipse SUMO duarouter Version 1.22.0
<duarouterConfiguration xmlns:xsi="http://www.w3.org/2001/XMLSchema-instance" xsi:noNamespaceSchemaLocation="http://sumo.dlr.de/xsd/duarouterConfiguration.xsd">

    <input>
        <net-file value="C:\Users\Administrator\Sumo\2025-04-09-10-48-15\osm.net.xml.gz"/>
        <route-files value="C:\Users\Administrator\Sumo\2025-04-09-10-48-15\osm.motorcycle.trips.xml"/>
    </input>

    <output>
        <output-file value="C:\Users\Administrator\Sumo\2025-04-09-10-48-15\osm.motorcycle.trips.xml.tmp"/>
        <alternatives-output value="NUL"/>
        <write-trips value="true"/>
    </output>

    <processing>
        <remove-loops value="true"/>
    </processing>

    <time>
        <begin value="0.0"/>
        <end value="3600.0"/>
    </time>

    <report>
        <no-warnings value="true"/>
        <ignore-errors value="true"/>
        <no-step-log value="true"/>
    </report>

</duarouterConfiguration>
-->

<routes xmlns:xsi="http://www.w3.org/2001/XMLSchema-instance" xsi:noNamespaceSchemaLocation="http://sumo.dlr.de/xsd/routes_file.xsd">
    <vType id="motorcycle_motorcycle" vClass="motorcycle" maxSpeed="40"/>
    <trip id="motorcycle0" type="motorcycle_motorcycle" depart="0.00" departLane="best" from="-684077606#4" to="-570600511#1"/>
    <trip id="motorcycle1" type="motorcycle_motorcycle" depart="3.58" departLane="best" from="-402562120#9" to="38134037#8"/>
    <trip id="motorcycle2" type="motorcycle_motorcycle" depart="7.17" departLane="best" from="1206350890#9" to="-1205661270#2"/>
    <trip id="motorcycle3" type="motorcycle_motorcycle" depart="10.75" departLane="best" from="332762597#2" to="-163047072#0"/>
    <trip id="motorcycle5" type="motorcycle_motorcycle" depart="17.92" departLane="best" from="570600511#2" to="-1008268819#0"/>
    <trip id="motorcycle6" type="motorcycle_motorcycle" depart="21.50" departLane="best" from="570600511#1" to="399416502#4"/>
    <trip id="motorcycle7" type="motorcycle_motorcycle" depart="25.09" departLane="best" from="1169767227#1" to="399416502#2"/>
    <trip id="motorcycle8" type="motorcycle_motorcycle" depart="28.67" departLane="best" from="684077606#1" to="332762597#11"/>
    <trip id="motorcycle9" type="motorcycle_motorcycle" depart="32.25" departLane="best" from="570600511#1" to="402562120#6"/>
    <trip id="motorcycle10" type="motorcycle_motorcycle" depart="35.84" departLane="best" from="1206350890#0" to="-163047072#4"/>
    <trip id="motorcycle12" type="motorcycle_motorcycle" depart="43.01" departLane="best" from="684077606#6" to="29111563#2"/>
    <trip id="motorcycle13" type="motorcycle_motorcycle" depart="46.59" departLane="best" from="38134037#9" to="-1251924186#0"/>
    <trip id="motorcycle15" type="motorcycle_motorcycle" depart="53.76" departLane="best" from="-162931638#8" to="-59150323#1"/>
    <trip id="motorcycle16" type="motorcycle_motorcycle" depart="57.34" departLane="best" from="163047072#5" to="684077606#5"/>
    <trip id="motorcycle17" type="motorcycle_motorcycle" depart="60.92" departLane="best" from="332762597#16" to="1169767229#1"/>
    <trip id="motorcycle18" type="motorcycle_motorcycle" depart="64.51" departLane="best" from="332762597#2" to="332762597#15"/>
    <trip id="motorcycle19" type="motorcycle_motorcycle" depart="68.09" departLane="best" from="-402562120#8" to="-402562120#6"/>
    <trip id="motorcycle20" type="motorcycle_motorcycle" depart="71.68" departLane="best" from="163047072#0" to="399416502#3"/>
    <trip id="motorcycle22" type="motorcycle_motorcycle" depart="78.84" departLane="best" from="1008268819#8" to="-684077606#1"/>
    <trip id="motorcycle23" type="motorcycle_motorcycle" depart="82.43" departLane="best" from="59150323#2" to="954183036#15"/>
    <trip id="motorcycle24" type="motorcycle_motorcycle" depart="86.01" departLane="best" from="-684077606#0" to="-598689303#1"/>
    <trip id="motorcycle25" type="motorcycle_motorcycle" depart="89.59" departLane="best" from="163047072#3" to="684077606#0"/>
    <trip id="motorcycle26" type="motorcycle_motorcycle" depart="93.18" departLane="best" from="1206350890#15" to="-570580858#1"/>
    <trip id="motorcycle27" type="motorcycle_motorcycle" depart="96.76" departLane="best" from="964350829" to="157338935#1"/>
    <trip id="motorcycle28" type="motorcycle_motorcycle" depart="100.35" departLane="best" from="331329425#0" to="332762597#20"/>
    <trip id="motorcycle30" type="motorcycle_motorcycle" depart="107.51" departLane="best" from="-1008268819#1" to="402562120#3"/>
    <trip id="motorcycle31" type="motorcycle_motorcycle" depart="111.10" departLane="best" from="-684077606#1" to="1169767227#1"/>
    <trip id="motorcycle32" type="motorcycle_motorcycle" depart="114.68" departLane="best" from="331329425#1" to="1206350890#9"/>
    <trip id="motorcycle33" type="motorcycle_motorcycle" depart="118.27" departLane="best" from="1008268815#1" to="1169767227#1"/>
    <trip id="motorcycle34" type="motorcycle_motorcycle" depart="121.85" departLane="best" departSpeed="max" from="503707345#0" to="162931638#6"/>
    <trip id="motorcycle35" type="motorcycle_motorcycle" depart="125.43" departLane="best" from="-1008268815#0" to="1008268819#8"/>
    <trip id="motorcycle36" type="motorcycle_motorcycle" depart="129.02" departLane="best" from="1008268819#6" to="156770493#1"/>
    <trip id="motorcycle37" type="motorcycle_motorcycle" depart="132.60" departLane="best" departSpeed="max" from="703978560#0" to="954183036#16"/>
    <trip id="motorcycle38" type="motorcycle_motorcycle" depart="136.18" departLane="best" from="-163042040#2" to="-1251924186#3"/>
    <trip id="motorcycle40" type="motorcycle_motorcycle" depart="143.35" departLane="best" from="684077606#0" to="684077606#1"/>
    <trip id="motorcycle41" type="motorcycle_motorcycle" depart="146.94" departLane="best" from="1206350890#9" to="-503707345#4"/>
    <trip id="motorcycle42" type="motorcycle_motorcycle" depart="150.52" departLane="best" from="-162931638#5" to="402562120#6"/>
    <trip id="motorcycle43" type="motorcycle_motorcycle" depart="154.10" departLane="best" from="570600511#1" to="1008268815#1"/>
    <trip id="motorcycle44" type="motorcycle_motorcycle" depart="157.69" departLane="best" from="954183036#9" to="332762597#7"/>
    <trip id="motorcycle45" type="motorcycle_motorcycle" depart="161.27" departLane="best" from="1210334157#1" to="162931629#2"/>
    <trip id="motorcycle47" type="motorcycle_motorcycle" depart="168.44" departLane="best" from="1169767227#1" to="-331329425#3"/>
    <trip id="motorcycle49" type="motorcycle_motorcycle" depart="175.61" departLane="best" from="-162931638#3" to="332762597#21"/>
    <trip id="motorcycle50" type="motorcycle_motorcycle" depart="179.19" departLane="best" from="-684077606#5" to="-162931629#1"/>
    <trip id="motorcycle53" type="motorcycle_motorcycle" depart="189.94" departLane="best" from="954183036#21" to="175975104"/>
    <trip id="motorcycle55" type="motorcycle_motorcycle" depart="197.11" departLane="best" from="570600511#2" to="-479402133#2"/>
    <trip id="motorcycle56" type="motorcycle_motorcycle" depart="200.69" departLane="best" from="163047072#4" to="1206350890#8"/>
    <trip id="motorcycle57" type="motorcycle_motorcycle" depart="204.28" departLane="best" from="1206350890#9" to="1239628944"/>
    <trip id="motorcycle58" type="motorcycle_motorcycle" depart="207.86" departLane="best" from="-402562120#6" to="38134037#7"/>
    <trip id="motorcycle59" type="motorcycle_motorcycle" depart="211.44" departLane="best" from="684077606#6" to="-598689303#2"/>
    <trip id="motorcycle60" type="motorcycle_motorcycle" depart="215.03" departLane="best" from="-570580858#0" to="1210334175#0"/>
    <trip id="motorcycle61" type="motorcycle_motorcycle" depart="218.61" departLane="best" from="-162931638#9" to="-1251924186#1"/>
    <trip id="motorcycle62" type="motorcycle_motorcycle" depart="222.20" departLane="best" from="954183036#19" to="954183010#3"/>
    <trip id="motorcycle63" type="motorcycle_motorcycle" depart="225.78" departLane="best" from="684077606#1" to="402562120#2"/>
    <trip id="motorcycle65" type="motorcycle_motorcycle" depart="232.95" departLane="best" from="1206350890#16" to="156770493#1"/>
    <trip id="motorcycle66" type="motorcycle_motorcycle" depart="236.53" departLane="best" from="1206350890#0" to="954183037"/>
    <trip id="motorcycle67" type="motorcycle_motorcycle" depart="240.11" departLane="best" from="-684077606#1" to="-570600511#2"/>
    <trip id="motorcycle68" type="motorcycle_motorcycle" depart="243.70" departLane="best" from="954183036#15" to="954183037"/>
    <trip id="motorcycle69" type="motorcycle_motorcycle" depart="247.28" departLane="best" from="163047072#0" to="402562120#2"/>
    <trip id="motorcycle70" type="motorcycle_motorcycle" depart="250.87" departLane="best" from="-157338935#1" to="-331329425#1"/>
    <trip id="motorcycle71" type="motorcycle_motorcycle" depart="254.45" departLane="best" departSpeed="max" from="155925981#0" to="598756945"/>
    <trip id="motorcycle72" type="motorcycle_motorcycle" depart="258.03" departLane="best" from="-162931638#8" to="402562120#9"/>
    <trip id="motorcycle73" type="motorcycle_motorcycle" depart="261.62" departLane="best" departSpeed="max" from="29111634#0" to="38134037#8"/>
    <trip id="motorcycle75" type="motorcycle_motorcycle" depart="268.78" departLane="best" departSpeed="max" from="29111634#0" to="332762597#18"/>
    <trip id="motorcycle76" type="motorcycle_motorcycle" depart="272.37" departLane="best" from="1206350890#8" to="-331329425#1"/>
    <trip id="motorcycle77" type="motorcycle_motorcycle" depart="275.95" departLane="best" from="-157338935#1" to="954183036#12"/>
    <trip id="motorcycle78" type="motorcycle_motorcycle" depart="279.54" departLane="best" from="570600511#2" to="402562120#10"/>
    <trip id="motorcycle79" type="motorcycle_motorcycle" depart="283.12" departLane="best" from="332762597#7" to="-703978560#0"/>
    <trip id="motorcycle80" type="motorcycle_motorcycle" depart="286.70" departLane="best" from="-162931638#5" to="1210334189#1"/>
    <trip id="motorcycle81" type="motorcycle_motorcycle" depart="290.29" departLane="best" from="964350829" to="954183037"/>
    <trip id="motorcycle82" type="motorcycle_motorcycle" depart="293.87" departLane="best" from="-162931638#5" to="-503707345#4"/>
    <trip id="motorcycle83" type="motorcycle_motorcycle" depart="297.46" departLane="best" from="1205661270#2" to="399416502#3"/>
    <trip id="motorcycle84" type="motorcycle_motorcycle" depart="301.04" departLane="best" from="331329425#3" to="954183037"/>
    <trip id="motorcycle85" type="motorcycle_motorcycle" depart="304.62" departLane="best" from="332762597#21" to="-1008268819#0"/>
    <trip id="motorcycle86" type="motorcycle_motorcycle" depart="308.21" departLane="best" from="59150323#2" to="-703978560#0"/>
    <trip id="motorcycle87" type="motorcycle_motorcycle" depart="311.79" departLane="best" from="-399416502#3" to="29111563#1"/>
    <trip id="motorcycle88" type="motorcycle_motorcycle" depart="315.37" departLane="best" from="-29111563#2" to="-163047072#4"/>
    <trip id="motorcycle89" type="motorcycle_motorcycle" depart="318.96" departLane="best" from="-684077606#3" to="332762597#11"/>
    <trip id="motorcycle90" type="motorcycle_motorcycle" depart="322.54" departLane="best" from="-402562120#2" to="-503707345#0"/>
    <trip id="motorcycle91" type="motorcycle_motorcycle" depart="326.13" departLane="best" from="332762597#15" to="684077606#0"/>
    <trip id="motorcycle92" type="motorcycle_motorcycle" depart="329.71" departLane="best" from="684077606#0" to="162931638#8"/>
    <trip id="motorcycle93" type="motorcycle_motorcycle" depart="333.29" departLane="best" from="1008268815#1" to="570580858#0"/>
    <trip id="motorcycle94" type="motorcycle_motorcycle" depart="336.88" departLane="best" from="332762597#16" to="-598689303#6"/>
    <trip id="motorcycle95" type="motorcycle_motorcycle" depart="340.46" departLane="best" departSpeed="max" from="447623861#0" to="-163047072#4"/>
    <trip id="motorcycle96" type="motorcycle_motorcycle" depart="344.04" departLane="best" departSpeed="max" from="1210334157#0" to="-1008268819#1"/>
    <trip id="motorcycle97" type="motorcycle_motorcycle" depart="347.63" departLane="best" from="-162931638#5" to="684077606#5"/>
    <trip id="motorcycle98" type="motorcycle_motorcycle" depart="351.21" departLane="best" departSpeed="max" from="883126621#0" to="-163047072#1"/>
    <trip id="motorcycle100" type="motorcycle_motorcycle" depart="358.38" departLane="best" from="-402562120#1" to="-29111634#0"/>
    <trip id="motorcycle102" type="motorcycle_motorcycle" depart="365.55" departLane="best" departSpeed="max" from="503707345#0" to="684077606#5"/>
    <trip id="motorcycle103" type="motorcycle_motorcycle" depart="369.13" departLane="best" from="-402562120#2" to="954183036#0"/>
    <trip id="motorcycle104" type="motorcycle_motorcycle" depart="372.72" departLane="best" from="503707345#2" to="-163047072#3"/>
    <trip id="motorcycle105" type="motorcycle_motorcycle" depart="376.30" departLane="best" departSpeed="max" from="-598689297" to="598689298"/>
    <trip id="motorcycle106" type="motorcycle_motorcycle" depart="379.88" departLane="best" from="331329425#2" to="-570600511#2"/>
    <trip id="motorcycle107" type="motorcycle_motorcycle" depart="383.47" departLane="best" from="332762597#17" to="1206350890#11"/>
    <trip id="motorcycle108" type="motorcycle_motorcycle" depart="387.05" departLane="best" from="-29111563#2" to="1206350890#9"/>
    <trip id="motorcycle109" type="motorcycle_motorcycle" depart="390.63" departLane="best" from="-402562120#5" to="1008268819#1"/>
    <trip id="motorcycle110" type="motorcycle_motorcycle" depart="394.22" departLane="best" from="331329425#1" to="157338935#1"/>
    <trip id="motorcycle111" type="motorcycle_motorcycle" depart="397.80" departLane="best" from="1206350890#10" to="29111563#2"/>
    <trip id="motorcycle112" type="motorcycle_motorcycle" depart="401.39" departLane="best" from="-162931638#3" to="402562120#2"/>
    <trip id="motorcycle113" type="motorcycle_motorcycle" depart="404.97" departLane="best" from="332762597#24" to="1169767221#0"/>
    <trip id="motorcycle114" type="motorcycle_motorcycle" depart="408.55" departLane="best" from="1206350890#16" to="-703978560#0"/>
    <trip id="motorcycle115" type="motorcycle_motorcycle" depart="412.14" departLane="best" from="37927290" to="1206350890#3"/>
    <trip id="motorcycle116" type="motorcycle_motorcycle" depart="415.72" departLane="best" from="954183036#0" to="38134037#8"/>
    <trip id="motorcycle117" type="motorcycle_motorcycle" depart="419.30" departLane="best" from="1008268815#1" to="-163047072#1"/>
    <trip id="motorcycle118" type="motorcycle_motorcycle" depart="422.89" departLane="best" from="-1008268815#0" to="-684077606#8"/>
    <trip id="motorcycle119" type="motorcycle_motorcycle" depart="426.47" departLane="best" departSpeed="max" from="1210334157#0" to="-331329425#0"/>
    <trip id="motorcycle121" type="motorcycle_motorcycle" depart="433.64" departLane="best" from="1210334157#2" to="-503707345#4"/>
    <trip id="motorcycle122" type="motorcycle_motorcycle" depart="437.22" departLane="best" from="331329425#2" to="402562120#3"/>
    <trip id="motorcycle123" type="motorcycle_motorcycle" depart="440.81" departLane="best" from="-163042040#2" to="162931629#2"/>
    <trip id="motorcycle124" type="motorcycle_motorcycle" depart="444.39" departLane="best" from="332762597#15" to="1169767221#2"/>
    <trip id="motorcycle125" type="motorcycle_motorcycle" depart="447.97" departLane="best" from="59150323#2" to="486563106"/>
    <trip id="motorcycle126" type="motorcycle_motorcycle" depart="451.56" departLane="best" from="332762597#7" to="-570600511#1"/>
    <trip id="motorcycle127" type="motorcycle_motorcycle" depart="455.14" departLane="best" from="570600511#1" to="-1205661270#1"/>
    <trip id="motorcycle129" type="motorcycle_motorcycle" depart="462.31" departLane="best" from="-684077606#2" to="-162931629#2"/>
    <trip id="motorcycle130" type="motorcycle_motorcycle" depart="465.89" departLane="best" from="-570580858#1" to="399416502#4"/>
    <trip id="motorcycle131" type="motorcycle_motorcycle" depart="469.48" departLane="best" from="1343341391#0" to="598689303#1"/>
    <trip id="motorcycle132" type="motorcycle_motorcycle" depart="473.06" departLane="best" from="332762597#21" to="1008268815#1"/>
    <trip id="motorcycle133" type="motorcycle_motorcycle" depart="476.65" departLane="best" from="479402133#1" to="-503707345#4"/>
    <trip id="motorcycle134" type="motorcycle_motorcycle" depart="480.23" departLane="best" from="-29111563#2" to="1206350890#5"/>
    <trip id="motorcycle136" type="motorcycle_motorcycle" depart="487.40" departLane="best" from="332762597#3" to="954183037"/>
    <trip id="motorcycle137" type="motorcycle_motorcycle" depart="490.98" departLane="best" from="-402562120#2" to="156770493#2"/>
    <trip id="motorcycle139" type="motorcycle_motorcycle" depart="498.15" departLane="best" from="1240693325#2" to="-598689303#6"/>
    <trip id="motorcycle141" type="motorcycle_motorcycle" depart="505.32" departLane="best" from="332762597#11" to="684077606#4"/>
    <trip id="motorcycle142" type="motorcycle_motorcycle" depart="508.90" departLane="best" from="-162931638#6" to="684077606#7"/>
    <trip id="motorcycle143" type="motorcycle_motorcycle" depart="512.48" departLane="best" from="684077606#3" to="1008268819#7"/>
    <trip id="motorcycle144" type="motorcycle_motorcycle" depart="516.07" departLane="best" from="-162931638#5" to="331329425#1"/>
    <trip id="motorcycle147" type="motorcycle_motorcycle" depart="526.82" departLane="best" from="1206350890#3" to="-163047072#0"/>
    <trip id="motorcycle148" type="motorcycle_motorcycle" depart="530.40" departLane="best" from="1206350890#6" to="-503707345#2"/>
    <trip id="motorcycle149" type="motorcycle_motorcycle" depart="533.99" departLane="best" from="1206350890#8" to="883126624#1"/>
    <trip id="motorcycle150" type="motorcycle_motorcycle" depart="537.57" departLane="best" from="164031250#1" to="399416502#4"/>
    <trip id="motorcycle151" type="motorcycle_motorcycle" depart="541.15" departLane="best" from="684077606#4" to="-503707345#3"/>
    <trip id="motorcycle152" type="motorcycle_motorcycle" depart="544.74" departLane="best" from="1169767228#2" to="486563106"/>
    <trip id="motorcycle153" type="motorcycle_motorcycle" depart="548.32" departLane="best" from="954183036#2" to="486370014#1"/>
    <trip id="motorcycle154" type="motorcycle_motorcycle" depart="551.91" departLane="best" from="-162931638#8" to="332762597#11"/>
    <trip id="motorcycle156" type="motorcycle_motorcycle" depart="559.07" departLane="best" from="1169767226#2" to="38134037#9"/>
    <trip id="motorcycle157" type="motorcycle_motorcycle" depart="562.66" departLane="best" from="1239628944" to="-29111634#0"/>
    <trip id="motorcycle158" type="motorcycle_motorcycle" depart="566.24" departLane="best" from="1169767229#1" to="-1205661270#1"/>
    <trip id="motorcycle159" type="motorcycle_motorcycle" depart="569.82" departLane="best" from="1206350890#13" to="175975104"/>
    <trip id="motorcycle160" type="motorcycle_motorcycle" depart="573.41" departLane="best" from="1205661270#1" to="332762597#3"/>
    <trip id="motorcycle161" type="motorcycle_motorcycle" depart="576.99" departLane="best" departSpeed="max" from="-399416502#4" to="1210334189#2"/>
    <trip id="motorcycle162" type="motorcycle_motorcycle" depart="580.58" departLane="best" from="-156770493#2" to="-1205661270#1"/>
    <trip id="motorcycle163" type="motorcycle_motorcycle" depart="584.16" departLane="best" from="486370014#1" to="-1205661270#1"/>
    <trip id="motorcycle164" type="motorcycle_motorcycle" depart="587.74" departLane="best" from="479402133#1" to="-598689303#3"/>
    <trip id="motorcycle166" type="motorcycle_motorcycle" depart="594.91" departLane="best" from="-1008268819#7" to="-163042040#2"/>
    <trip id="motorcycle167" type="motorcycle_motorcycle" depart="598.49" departLane="best" from="964350829" to="1169767227#1"/>
    <trip id="motorcycle168" type="motorcycle_motorcycle" depart="602.08" departLane="best" from="332762597#2" to="-570600511#1"/>
    <trip id="motorcycle170" type="motorcycle_motorcycle" depart="609.25" departLane="best" from="163047072#4" to="-570580858#1"/>
    <trip id="motorcycle171" type="motorcycle_motorcycle" depart="612.83" departLane="best" from="38134037#8" to="-503707345#3"/>
    <trip id="motorcycle172" type="motorcycle_motorcycle" depart="616.41" departLane="best" from="-402562120#6" to="38134037#3"/>
    <trip id="motorcycle173" type="motorcycle_motorcycle" depart="620.00" departLane="best" from="-29111563#2" to="-1205661270#1"/>
    <trip id="motorcycle174" type="motorcycle_motorcycle" depart="623.58" departLane="best" from="1008268819#7" to="38134037#8"/>
    <trip id="motorcycle175" type="motorcycle_motorcycle" depart="627.16" departLane="best" from="954183036#16" to="1206350890#10"/>
    <trip id="motorcycle176" type="motorcycle_motorcycle" depart="630.75" departLane="best" from="-402562120#10" to="-162931638#1"/>
    <trip id="motorcycle177" type="motorcycle_motorcycle" depart="634.33" departLane="best" from="38134037#5" to="332762597#20"/>
    <trip id="motorcycle178" type="motorcycle_motorcycle" depart="637.92" departLane="best" from="163047072#5" to="570580858#0"/>
    <trip id="motorcycle179" type="motorcycle_motorcycle" depart="641.50" departLane="best" from="684077606#2" to="332762597#10"/>
    <trip id="motorcycle180" type="motorcycle_motorcycle" depart="645.08" departLane="best" departSpeed="max" from="503707345#0" to="162931629#1"/>
    <trip id="motorcycle181" type="motorcycle_motorcycle" depart="648.67" departLane="best" from="684077606#2" to="-598689303#0"/>
    <trip id="motorcycle182" type="motorcycle_motorcycle" depart="652.25" departLane="best" from="-29111563#2" to="954183036#2"/>
    <trip id="motorcycle183" type="motorcycle_motorcycle" depart="655.84" departLane="best" from="332762597#16" to="-598689303#2"/>
    <trip id="motorcycle184" type="motorcycle_motorcycle" depart="659.42" departLane="best" from="-399416502#2" to="1206350890#9"/>
    <trip id="motorcycle185" type="motorcycle_motorcycle" depart="663.00" departLane="best" from="-684077606#2" to="598689298"/>
    <trip id="motorcycle186" type="motorcycle_motorcycle" depart="666.59" departLane="best" from="-162931638#3" to="-1251924186#3"/>
    <trip id="motorcycle187" type="motorcycle_motorcycle" depart="670.17" departLane="best" departSpeed="max" from="1210334157#0" to="402562120#6"/>
    <trip id="motorcycle189" type="motorcycle_motorcycle" depart="677.34" departLane="best" from="1239628943#0" to="332762597#15"/>
    <trip id="motorcycle190" type="motorcycle_motorcycle" depart="680.92" departLane="best" from="1206350890#0" to="-1205661270#2"/>
    <trip id="motorcycle191" type="motorcycle_motorcycle" depart="684.51" departLane="best" from="684077606#2" to="402562120#8"/>
    <trip id="motorcycle192" type="motorcycle_motorcycle" depart="688.09" departLane="best" from="332762597#24" to="684077606#4"/>
    <trip id="motorcycle193" type="motorcycle_motorcycle" depart="691.67" departLane="best" from="38134037#8" to="684077606#4"/>
    <trip id="motorcycle194" type="motorcycle_motorcycle" depart="695.26" departLane="best" from="-163042040#2" to="402562120#3"/>
    <trip id="motorcycle195" type="motorcycle_motorcycle" depart="698.84" departLane="best" from="38134037#5" to="332762597#6"/>
    <trip id="motorcycle196" type="motorcycle_motorcycle" depart="702.42" departLane="best" from="163047072#1" to="-570600511#0"/>
    <trip id="motorcycle197" type="motorcycle_motorcycle" depart="706.01" departLane="best" from="162931638#1" to="1206350890#5"/>
    <trip id="motorcycle198" type="motorcycle_motorcycle" depart="709.59" departLane="best" from="38134037#9" to="684077606#2"/>
    <trip id="motorcycle200" type="motorcycle_motorcycle" depart="716.76" departLane="best" from="-570580858#0" to="29111563#2"/>
    <trip id="motorcycle201" type="motorcycle_motorcycle" depart="720.34" departLane="best" from="-162931638#11" to="-503707345#2"/>
    <trip id="motorcycle202" type="motorcycle_motorcycle" depart="723.93" departLane="best" from="503707345#3" to="-331329425#2"/>
    <trip id="motorcycle204" type="motorcycle_motorcycle" depart="731.10" departLane="best" from="-684077606#6" to="-163047072#0"/>
    <trip id="motorcycle205" type="motorcycle_motorcycle" depart="734.68" departLane="best" from="-570580858#1" to="-570600511#2"/>
    <trip id="motorcycle206" type="motorcycle_motorcycle" depart="738.26" departLane="best" from="-479402133#2" to="-1008268819#5"/>
    <trip id="motorcycle207" type="motorcycle_motorcycle" depart="741.85" departLane="best" from="-162931638#11" to="684077606#4"/>
    <trip id="motorcycle208" type="motorcycle_motorcycle" depart="745.43" departLane="best" from="954183036#20" to="-163047072#4"/>
    <trip id="motorcycle209" type="motorcycle_motorcycle" depart="749.01" departLane="best" from="38134037#7" to="-29111634#0"/>
    <trip id="motorcycle210" type="motorcycle_motorcycle" depart="752.60" departLane="best" from="684077606#8" to="-1251924186#3"/>
    <trip id="motorcycle211" type="motorcycle_motorcycle" depart="756.18" departLane="best" from="684077606#9" to="29111563#1"/>
    <trip id="motorcycle212" type="motorcycle_motorcycle" depart="759.77" departLane="best" from="503707345#3" to="-1251924186#3"/>
    <trip id="motorcycle213" type="motorcycle_motorcycle" depart="763.35" departLane="best" from="-162931638#5" to="332762597#20"/>
    <trip id="motorcycle214" type="motorcycle_motorcycle" depart="766.93" departLane="best" from="163047072#3" to="-703978560#0"/>
    <trip id="motorcycle215" type="motorcycle_motorcycle" depart="770.52" departLane="best" from="954183036#8" to="29111563#2"/>
    <trip id="motorcycle216" type="motorcycle_motorcycle" depart="774.10" departLane="best" from="503707345#3" to="-570600511#1"/>
    <trip id="motorcycle217" type="motorcycle_motorcycle" depart="777.68" departLane="best" from="954183036#6" to="-703978560#1"/>
    <trip id="motorcycle218" type="motorcycle_motorcycle" depart="781.27" departLane="best" from="332762597#1" to="332762597#15"/>
    <trip id="motorcycle219" type="motorcycle_motorcycle" depart="784.85" departLane="best" departSpeed="max" from="447623861#0" to="954183036#16"/>
    <trip id="motorcycle220" type="motorcycle_motorcycle" depart="788.44" departLane="best" from="59150323#0" to="-503707345#4"/>
    <trip id="motorcycle221" type="motorcycle_motorcycle" depart="792.02" departLane="best" from="332762597#23" to="399416502#3"/>
    <trip id="motorcycle222" type="motorcycle_motorcycle" depart="795.60" departLane="best" from="-402562120#9" to="162931629#2"/>
    <trip id="motorcycle223" type="motorcycle_motorcycle" depart="799.19" departLane="best" from="-1008268815#0" to="1210334175#1"/>
    <trip id="motorcycle224" type="motorcycle_motorcycle" depart="802.77" departLane="best" departSpeed="max" from="29111634#0" to="684077606#9"/>
    <trip id="motorcycle225" type="motorcycle_motorcycle" depart="806.35" departLane="best" from="38134037#9" to="1210334176#1"/>
    <trip id="motorcycle226" type="motorcycle_motorcycle" depart="809.94" departLane="best" from="503707345#2" to="332762597#2"/>
    <trip id="motorcycle227" type="motorcycle_motorcycle" depart="813.52" departLane="best" from="332762597#2" to="883126624#2"/>
    <trip id="motorcycle229" type="motorcycle_motorcycle" depart="820.69" departLane="best" from="-402562120#6" to="1008268815#0"/>
    <trip id="motorcycle230" type="motorcycle_motorcycle" depart="824.27" departLane="best" departSpeed="max" from="447623861#0" to="175975104"/>
    <trip id="motorcycle231" type="motorcycle_motorcycle" depart="827.86" departLane="best" from="-684077606#8" to="-29111634#0"/>
    <trip id="motorcycle232" type="motorcycle_motorcycle" depart="831.44" departLane="best" from="954183036#0" to="156770493#1"/>
    <trip id="motorcycle235" type="motorcycle_motorcycle" depart="842.19" departLane="best" from="163047072#1" to="954183036#20"/>
    <trip id="motorcycle237" type="motorcycle_motorcycle" depart="849.36" departLane="best" from="954183036#13" to="964350829"/>
    <trip id="motorcycle238" type="motorcycle_motorcycle" depart="852.94" departLane="best" from="332762597#7" to="684077606#2"/>
    <trip id="motorcycle240" type="motorcycle_motorcycle" depart="860.11" departLane="best" departSpeed="max" from="883126623" to="402562120#8"/>