<?xml version="1.0" encoding="UTF-8"?>

<!-- generated on 2025-04-09 10:48:20 by Eclipse SUMO netconvert Version 1.22.0
<netconvertConfiguration xmlns:xsi="http://www.w3.org/2001/XMLSchema-instance" xsi:noNamespaceSchemaLocation="http://sumo.dlr.de/xsd/netconvertConfiguration.xsd">

    <input>
        <type-files value="${SUMO_HOME}\data\typemap\osmNetconvert.typ.xml"/>
        <osm-files value="osm_bbox.osm.xml.gz"/>
    </input>

    <output>
        <output-file value="osm.net.xml.gz"/>
        <output.street-names value="true"/>
        <output.original-names value="true"/>
    </output>

    <projection>
        <proj.utm value="true"/>
    </projection>

    <processing>
        <geometry.remove value="true"/>
        <roundabouts.guess value="true"/>
    </processing>

    <tls_building>
        <tls.discard-simple value="true"/>
        <tls.join value="true"/>
        <tls.guess-signals value="true"/>
        <tls.default-type value="actuated"/>
    </tls_building>

    <ramp_guessing>
        <ramps.guess value="true"/>
    </ramp_guessing>

    <junctions>
        <junctions.join value="true"/>
        <junctions.corner-detail value="5"/>
    </junctions>

</netconvertConfiguration>
-->

<net version="1.20" junctionCornerDetail="5" limitTurnSpeed="5.50" xmlns:xsi="http://www.w3.org/2001/XMLSchema-instance" xsi:noNamespaceSchemaLocation="http://sumo.dlr.de/xsd/net_file.xsd">

    <location netOffset="-581261.42,-2327332.09" convBoundary="0.00,0.00,2545.34,298.68" origBoundary="105.782117,21.045034,105.806609,21.047632" projParameter="+proj=utm +zone=48 +ellps=WGS84 +datum=WGS84 +units=m +no_defs"/>

    <type id="highway.footway" priority="1" numLanes="1" speed="2.78" allow="pedestrian" oneway="1" width="2.00"/>
    <type id="highway.path" priority="1" numLanes="1" speed="5.56" allow="pedestrian bicycle" oneway="0" width="2.00"/>
    <type id="highway.pedestrian" priority="1" numLanes="1" speed="2.78" allow="pedestrian" oneway="1" width="2.00"/>
    <type id="highway.primary" priority="12" numLanes="2" speed="27.78" disallow="tram rail_urban rail rail_electric rail_fast ship container cable_car subway aircraft wheelchair scooter drone" oneway="0"/>
    <type id="highway.primary_link" priority="7" numLanes="1" speed="22.22" disallow="tram rail_urban rail rail_electric rail_fast ship container cable_car subway aircraft wheelchair scooter drone" oneway="0"/>
    <type id="highway.residential" priority="3" numLanes="1" speed="13.89" disallow="tram rail_urban rail rail_electric rail_fast ship container cable_car subway aircraft wheelchair scooter drone" oneway="0"/>
    <type id="highway.secondary" priority="11" numLanes="1" speed="27.78" disallow="tram rail_urban rail rail_electric rail_fast ship container cable_car subway aircraft wheelchair scooter drone" oneway="0"/>
    <type id="highway.secondary_link" priority="6" numLanes="1" speed="22.22" disallow="tram rail_urban rail rail_electric rail_fast ship container cable_car subway aircraft wheelchair scooter drone" oneway="0"/>
    <type id="highway.service" priority="1" numLanes="1" speed="5.56" allow="pedestrian delivery bicycle" oneway="0"/>
    <type id="highway.steps" priority="1" numLanes="1" speed="1.39" allow="pedestrian" oneway="1" width="2.00"/>
    <type id="highway.tertiary" priority="10" numLanes="1" speed="22.22" disallow="tram rail_urban rail rail_electric rail_fast ship container cable_car subway aircraft wheelchair scooter drone" oneway="0"/>
    <type id="highway.track" priority="1" numLanes="1" speed="5.56" allow="pedestrian motorcycle moped bicycle" oneway="0"/>
    <type id="highway.trunk" priority="13" numLanes="2" speed="27.78" disallow="pedestrian bicycle tram rail_urban rail rail_electric rail_fast ship container cable_car subway aircraft wheelchair scooter drone" oneway="0"/>
    <type id="highway.trunk_link" priority="8" numLanes="1" speed="22.22" disallow="pedestrian bicycle tram rail_urban rail rail_electric rail_fast ship container cable_car subway aircraft wheelchair scooter drone" oneway="0"/>
    <type id="highway.unclassified" priority="4" numLanes="1" speed="13.89" disallow="tram rail_urban rail rail_electric rail_fast ship container cable_car subway aircraft wheelchair scooter drone" oneway="0"/>

    <edge id=":10115986861_0" function="internal">
        <lane id=":10115986861_0_0" index="0" allow="pedestrian delivery bicycle" speed="5.56" length="9.34" shape="1169.66,177.78 1169.57,187.12"/>
    </edge>
    <edge id=":10115986861_1" function="internal">
        <lane id=":10115986861_1_0" index="0" allow="pedestrian delivery bicycle" speed="5.56" length="10.13" shape="1169.66,177.78 1169.23,180.51 1168.02,182.45 1166.04,183.62 1163.28,184.00"/>
    </edge>
    <edge id=":10115986861_2" function="internal">
        <lane id=":10115986861_2_0" index="0" allow="pedestrian delivery bicycle" speed="3.65" length="4.67" shape="1169.66,177.78 1168.84,178.97 1168.04,179.35 1167.25,178.94 1166.46,177.73"/>
    </edge>
    <edge id=":10115986861_3" function="internal">
        <lane id=":10115986861_3_0" index="0" allow="pedestrian delivery bicycle" speed="5.07" length="5.02" shape="1163.29,180.80 1164.66,180.61 1165.65,180.03 1166.25,179.07 1166.46,177.73"/>
    </edge>
    <edge id=":10115986861_4" function="internal">
        <lane id=":10115986861_4_0" index="0" allow="pedestrian delivery bicycle" speed="5.56" length="10.16" shape="1163.29,180.80 1166.05,181.20 1168.01,182.39 1169.19,184.36 1169.57,187.12"/>
    </edge>
    <edge id=":10115986861_5" function="internal">
        <lane id=":10115986861_5_0" index="0" allow="pedestrian delivery bicycle" speed="3.65" length="4.67" shape="1163.29,180.80 1164.49,181.60 1164.89,182.40 1164.48,183.20 1163.28,184.00"/>
    </edge>
    <edge id=":10115986861_6" function="internal">
        <lane id=":10115986861_6_0" index="0" allow="pedestrian delivery bicycle" speed="5.04" length="5.00" shape="1166.37,187.11 1166.18,185.75 1165.60,184.78 1164.64,184.19 1163.28,184.00"/>
    </edge>
    <edge id=":10115986861_7" function="internal">
        <lane id=":10115986861_7_0" index="0" allow="pedestrian delivery bicycle" speed="5.56" length="9.38" shape="1166.37,187.11 1166.46,177.73"/>
    </edge>
    <edge id=":10115986861_8" function="internal">
        <lane id=":10115986861_8_0" index="0" allow="pedestrian delivery bicycle" speed="3.65" length="4.67" shape="1166.37,187.11 1167.18,185.91 1167.98,185.51 1168.78,185.92 1169.57,187.12"/>
    </edge>
    <edge id=":10212401304_0" function="internal">
        <lane id=":10212401304_0_0" index="0" allow="pedestrian delivery bicycle" speed="9.72" length="6.93" shape="215.68,31.68 213.98,30.62 212.64,30.19 211.18,30.14 209.12,30.21"/>
    </edge>
    <edge id=":10212401304_1" function="internal">
        <lane id=":10212401304_1_0" index="0" disallow="tram rail_urban rail rail_electric rail_fast ship container cable_car subway aircraft wheelchair scooter drone" speed="7.72" length="6.61" shape="215.68,31.68 214.17,30.43 213.08,29.13 212.40,27.77 212.15,26.36"/>
    </edge>
    <edge id=":10212401304_2" function="internal">
        <lane id=":10212401304_2_0" index="0" disallow="tram rail_urban rail rail_electric rail_fast ship container cable_car subway aircraft wheelchair scooter drone" speed="6.20" length="1.95" shape="216.58,28.57 216.87,29.01 217.22,29.18 217.66,29.28 218.19,29.54"/>
    </edge>
    <edge id=":10212401304_3" function="internal">
        <lane id=":10212401304_3_0" index="0" allow="pedestrian delivery bicycle" speed="5.56" length="1.07" shape="216.58,28.57 216.34,29.24 216.00,29.37"/>
    </edge>
    <edge id=":10212401304_7" function="internal">
        <lane id=":10212401304_7_0" index="0" allow="pedestrian delivery bicycle" speed="5.56" length="6.97" shape="216.00,29.37 215.01,29.74 212.61,30.06 209.12,30.21"/>
    </edge>
    <edge id=":10212401304_4" function="internal">
        <lane id=":10212401304_4_0" index="0" allow="pedestrian delivery bicycle" speed="4.30" length="3.40" shape="209.05,27.01 209.96,27.04 210.98,27.05 211.82,26.88 212.15,26.36"/>
    </edge>
    <edge id=":10212401304_5" function="internal">
        <lane id=":10212401304_5_0" index="0" allow="pedestrian delivery bicycle" speed="9.72" length="9.76" shape="209.05,27.01 211.93,26.99 213.95,27.21 215.80,27.97 218.19,29.54"/>
    </edge>
    <edge id=":10212401304_6" function="internal">
        <lane id=":10212401304_6_0" index="0" allow="pedestrian delivery bicycle" speed="3.65" length="4.67" shape="209.05,27.01 210.27,27.78 210.69,28.57 210.30,29.38 209.12,30.21"/>
    </edge>
    <edge id=":10212441045_0" function="internal">
        <lane id=":10212441045_0_0" index="0" disallow="tram rail_urban rail rail_electric rail_fast ship container cable_car subway aircraft wheelchair scooter drone" speed="13.89" length="9.40" shape="443.63,82.40 443.57,91.80"/>
    </edge>
    <edge id=":10212441045_1" function="internal">
        <lane id=":10212441045_1_0" index="0" allow="pedestrian delivery bicycle" speed="6.87" length="3.25" shape="443.63,82.40 443.22,85.14 442.97,85.55"/>
    </edge>
    <edge id=":10212441045_7" function="internal">
        <lane id=":10212441045_7_0" index="0" allow="pedestrian delivery bicycle" speed="6.87" length="6.91" shape="442.97,85.55 442.02,87.10 440.04,88.28 437.28,88.66"/>
    </edge>
    <edge id=":10212441045_2" function="internal">
        <lane id=":10212441045_2_0" index="0" allow="pedestrian delivery bicycle" speed="5.06" length="5.02" shape="437.29,85.46 438.65,85.27 439.63,84.69 440.23,83.73 440.43,82.38"/>
    </edge>
    <edge id=":10212441045_3" function="internal">
        <lane id=":10212441045_3_0" index="0" allow="pedestrian delivery bicycle" speed="6.86" length="10.18" shape="437.29,85.46 440.05,85.86 442.02,87.05 443.19,89.03 443.57,91.80"/>
    </edge>
    <edge id=":10212441045_4" function="internal">
        <lane id=":10212441045_4_0" index="0" allow="pedestrian delivery bicycle" speed="3.65" length="4.67" shape="437.29,85.46 438.48,86.26 438.88,87.07 438.48,87.86 437.28,88.66"/>
    </edge>
    <edge id=":10212441045_5" function="internal">
        <lane id=":10212441045_5_0" index="0" allow="pedestrian delivery bicycle" speed="5.04" length="5.01" shape="440.37,91.78 440.18,90.42 439.60,89.44 438.64,88.86 437.28,88.66"/>
    </edge>
    <edge id=":10212441045_6" function="internal">
        <lane id=":10212441045_6_0" index="0" disallow="tram rail_urban rail rail_electric rail_fast ship container cable_car subway aircraft wheelchair scooter drone" speed="13.89" length="9.40" shape="440.37,91.78 440.43,82.38"/>
    </edge>
    <edge id=":10212441046_0" function="internal">
        <lane id=":10212441046_0_0" index="0" allow="pedestrian delivery bicycle" speed="3.65" length="4.67" shape="407.37,74.41 406.57,75.61 405.77,76.01 404.97,75.61 404.17,74.41"/>
    </edge>
    <edge id=":10221034302_0" function="internal">
        <lane id=":10221034302_0_0" index="0" allow="pedestrian delivery bicycle" speed="3.65" length="4.67" shape="318.93,76.70 317.72,75.91 317.32,75.11 317.71,74.31 318.90,73.50"/>
    </edge>
    <edge id=":10222624918_0" function="internal">
        <lane id=":10222624918_0_0" index="0" allow="pedestrian delivery bicycle" speed="3.65" length="4.67" shape="239.50,15.53 240.69,16.34 241.08,17.15 240.68,17.94 239.47,18.73"/>
    </edge>
    <edge id=":10228012829_0" function="internal">
        <lane id=":10228012829_0_0" index="0" allow="pedestrian delivery bicycle" speed="5.06" length="5.03" shape="895.12,35.20 893.74,35.37 892.75,35.93 892.14,36.89 891.91,38.23"/>
    </edge>
    <edge id=":10228012829_1" function="internal">
        <lane id=":10228012829_1_0" index="0" allow="pedestrian delivery bicycle" speed="5.56" length="10.20" shape="895.12,35.20 892.36,34.75 890.41,33.53 889.27,31.53 888.95,28.75"/>
    </edge>
    <edge id=":10228012829_2" function="internal">
        <lane id=":10228012829_2_0" index="0" allow="pedestrian delivery bicycle" speed="3.65" length="4.67" shape="895.12,35.20 893.93,34.38 893.55,33.57 893.96,32.78 895.18,32.00"/>
    </edge>
    <edge id=":10228012829_3" function="internal">
        <lane id=":10228012829_3_0" index="0" allow="pedestrian delivery bicycle" speed="5.03" length="5.01" shape="892.14,28.83 892.30,30.20 892.86,31.18 893.82,31.78 895.18,32.00"/>
    </edge>
    <edge id=":10228012829_4" function="internal">
        <lane id=":10228012829_4_0" index="0" allow="pedestrian delivery bicycle" speed="5.56" length="9.40" shape="892.14,28.83 891.91,38.23"/>
    </edge>
    <edge id=":10228012829_5" function="internal">
        <lane id=":10228012829_5_0" index="0" allow="pedestrian delivery bicycle" speed="3.65" length="4.67" shape="892.14,28.83 891.31,30.01 890.50,30.39 889.71,29.97 888.95,28.75"/>
    </edge>
    <edge id=":10228012829_6" function="internal">
        <lane id=":10228012829_6_0" index="0" allow="pedestrian delivery bicycle" speed="5.56" length="9.41" shape="888.71,38.16 888.95,28.75"/>
    </edge>
    <edge id=":10228012829_7" function="internal">
        <lane id=":10228012829_7_0" index="0" allow="pedestrian delivery bicycle" speed="5.56" length="10.17" shape="888.71,38.16 889.17,35.42 890.40,33.48 892.40,32.34 895.18,32.00"/>
    </edge>
    <edge id=":10228012829_8" function="internal">
        <lane id=":10228012829_8_0" index="0" allow="pedestrian delivery bicycle" speed="3.65" length="4.67" shape="888.71,38.16 889.54,36.98 890.35,36.59 891.14,37.01 891.91,38.23"/>
    </edge>
    <edge id=":10228237727_0" function="internal">
        <lane id=":10228237727_0_0" index="0" allow="pedestrian delivery bicycle" speed="5.56" length="9.40" shape="1033.60,209.32 1024.21,208.77"/>
    </edge>
    <edge id=":10228237727_1" function="internal">
        <lane id=":10228237727_1_0" index="0" allow="pedestrian delivery bicycle" speed="5.56" length="10.17" shape="1033.60,209.32 1030.91,208.77 1029.02,207.47 1027.93,205.42 1027.64,202.62"/>
    </edge>
    <edge id=":10228237727_2" function="internal">
        <lane id=":10228237727_2_0" index="0" allow="pedestrian delivery bicycle" speed="3.65" length="4.67" shape="1033.60,209.32 1032.45,208.46 1032.09,207.63 1032.54,206.86 1033.79,206.13"/>
    </edge>
    <edge id=":10228237727_3" function="internal">
        <lane id=":10228237727_3_0" index="0" allow="pedestrian delivery bicycle" speed="5.12" length="5.10" shape="1030.84,202.73 1030.98,204.15 1031.52,205.19 1032.45,205.85 1033.79,206.13"/>
    </edge>
    <edge id=":10228237727_4" function="internal">
        <lane id=":10228237727_4_0" index="0" allow="pedestrian delivery bicycle" speed="5.56" length="10.28" shape="1030.84,202.73 1030.34,205.52 1029.07,207.45 1027.03,208.54 1024.21,208.77"/>
    </edge>
    <edge id=":10228237727_5" function="internal">
        <lane id=":10228237727_5_0" index="0" allow="pedestrian delivery bicycle" speed="3.65" length="4.67" shape="1030.84,202.73 1030.00,203.91 1029.19,204.28 1028.40,203.85 1027.64,202.62"/>
    </edge>
    <edge id=":10228237727_6" function="internal">
        <lane id=":10228237727_6_0" index="0" allow="pedestrian delivery bicycle" speed="5.01" length="5.03" shape="1024.40,205.58 1025.78,205.46 1026.78,204.93 1027.40,203.99 1027.64,202.62"/>
    </edge>
    <edge id=":10228237727_7" function="internal">
        <lane id=":10228237727_7_0" index="0" allow="pedestrian delivery bicycle" speed="5.56" length="9.40" shape="1024.40,205.58 1033.79,206.13"/>
    </edge>
    <edge id=":10228237727_8" function="internal">
        <lane id=":10228237727_8_0" index="0" allow="pedestrian delivery bicycle" speed="3.65" length="4.67" shape="1024.40,205.58 1025.55,206.45 1025.90,207.27 1025.46,208.04 1024.21,208.77"/>
    </edge>
    <edge id=":10228237730_0" function="internal">
        <lane id=":10228237730_0_0" index="0" allow="pedestrian delivery bicycle" speed="5.07" length="5.03" shape="1016.83,142.87 1015.48,143.06 1014.51,143.63 1013.91,144.61 1013.69,145.98"/>
    </edge>
    <edge id=":10228237730_1" function="internal">
        <lane id=":10228237730_1_0" index="0" disallow="tram rail_urban rail rail_electric rail_fast ship container cable_car subway aircraft wheelchair scooter drone" speed="27.78" length="9.36" shape="1016.83,142.87 1007.45,142.76"/>
        <lane id=":10228237730_1_1" index="1" disallow="tram rail_urban rail rail_electric rail_fast ship container cable_car subway aircraft wheelchair scooter drone" speed="27.78" length="9.36" shape="1016.86,139.67 1007.50,139.56"/>
        <lane id=":10228237730_1_2" index="2" disallow="tram rail_urban rail rail_electric rail_fast ship container cable_car subway aircraft wheelchair scooter drone" speed="27.78" length="9.36" shape="1016.88,136.47 1007.55,136.36"/>
    </edge>
    <edge id=":10228237730_4" function="internal">
        <lane id=":10228237730_4_0" index="0" allow="pedestrian delivery bicycle" speed="5.04" length="5.00" shape="1010.49,145.91 1010.33,144.55 1009.76,143.57 1008.80,142.97 1007.45,142.76"/>
    </edge>
    <edge id=":10228237730_5" function="internal">
        <lane id=":10228237730_5_0" index="0" allow="pedestrian delivery bicycle" speed="3.65" length="4.67" shape="1010.49,145.91 1011.32,144.73 1012.12,144.34 1012.92,144.76 1013.69,145.98"/>
    </edge>
    <edge id=":10228237744_0" function="internal">
        <lane id=":10228237744_0_0" index="0" allow="pedestrian delivery bicycle" speed="6.08" length="7.81" shape="1072.22,236.99 1071.88,239.11 1070.94,240.60 1069.40,241.46 1067.27,241.70"/>
    </edge>
    <edge id=":10228237744_1" function="internal">
        <lane id=":10228237744_1_0" index="0" disallow="tram rail_urban rail rail_electric rail_fast ship container cable_car subway aircraft wheelchair scooter drone" speed="3.65" length="4.67" shape="1072.22,236.99 1071.40,238.18 1070.59,238.56 1069.80,238.15 1069.02,236.93"/>
    </edge>
    <edge id=":10228237744_2" function="internal">
        <lane id=":10228237744_2_0" index="0" allow="pedestrian delivery bicycle" speed="3.90" length="2.60" shape="1067.37,238.50 1068.08,238.42 1068.60,238.13 1068.91,237.64 1069.02,236.93"/>
    </edge>
    <edge id=":10241816541_0" function="internal">
        <lane id=":10241816541_0_0" index="0" disallow="tram rail_urban rail rail_electric rail_fast ship container cable_car subway aircraft wheelchair scooter drone" speed="6.52" length="9.21" shape="229.57,39.65 229.17,37.45 227.97,35.89 225.97,34.98 223.17,34.73"/>
    </edge>
    <edge id=":10241816541_1" function="internal">
        <lane id=":10241816541_1_0" index="0" disallow="tram rail_urban rail rail_electric rail_fast ship container cable_car subway aircraft wheelchair scooter drone" speed="13.89" length="14.98" shape="229.57,39.65 229.72,35.89 230.22,32.17 231.15,28.55 232.58,25.10"/>
    </edge>
    <edge id=":10241816541_2" function="internal">
        <lane id=":10241816541_2_0" index="0" disallow="tram rail_urban rail rail_electric rail_fast ship container cable_car subway aircraft wheelchair scooter drone" speed="3.65" length="4.67" shape="229.57,39.65 230.37,38.45 231.17,38.05 231.97,38.45 232.77,39.65"/>
    </edge>
    <edge id=":10241816541_3" function="internal">
        <lane id=":10241816541_3_0" index="0" disallow="tram rail_urban rail rail_electric rail_fast ship container cable_car subway aircraft wheelchair scooter drone" speed="10.01" length="8.66" shape="232.06,31.55 231.00,33.49 231.37,35.18 232.27,37.08 232.77,39.65"/>
    </edge>
    <edge id=":10241816541_4" function="internal">
        <lane id=":10241816541_4_0" index="0" disallow="tram rail_urban rail rail_electric rail_fast ship container cable_car subway aircraft wheelchair scooter drone" speed="10.24" length="9.68" shape="232.06,31.55 230.42,32.90 228.40,33.87 225.98,34.48 223.17,34.73"/>
    </edge>
    <edge id=":10241816541_5" function="internal">
        <lane id=":10241816541_5_0" index="0" disallow="tram rail_urban rail rail_electric rail_fast ship container cable_car subway aircraft wheelchair scooter drone" speed="4.94" length="1.69" shape="232.06,31.55 230.74,30.51"/>
    </edge>
    <edge id=":10241816541_9" function="internal">
        <lane id=":10241816541_9_0" index="0" disallow="tram rail_urban rail rail_electric rail_fast ship container cable_car subway aircraft wheelchair scooter drone" speed="4.94" length="7.76" shape="230.74,30.51 229.77,29.75 229.10,28.07 230.03,26.52 232.58,25.10"/>
    </edge>
    <edge id=":10241816541_6" function="internal">
        <lane id=":10241816541_6_0" index="0" disallow="tram rail_urban rail rail_electric rail_fast ship container cable_car subway aircraft wheelchair scooter drone" speed="8.56" length="14.24" shape="221.08,31.04 224.54,31.52 227.61,30.69 230.29,28.55 232.58,25.10"/>
    </edge>
    <edge id=":10241816541_7" function="internal">
        <lane id=":10241816541_7_0" index="0" disallow="tram rail_urban rail rail_electric rail_fast ship container cable_car subway aircraft wheelchair scooter drone" speed="9.37" length="3.37" shape="221.08,31.04 224.24,32.21"/>
    </edge>
    <edge id=":10241816541_8" function="internal">
        <lane id=":10241816541_8_0" index="0" disallow="tram rail_urban rail rail_electric rail_fast ship container cable_car subway aircraft wheelchair scooter drone" speed="4.21" length="5.65" shape="221.08,31.04 222.99,31.18 223.97,31.84 224.03,33.02 223.41,34.24"/>
    </edge>
    <edge id=":10241816541_10" function="internal">
        <lane id=":10241816541_10_0" index="0" disallow="tram rail_urban rail rail_electric rail_fast ship container cable_car subway aircraft wheelchair scooter drone" speed="9.37" length="11.93" shape="224.24,32.21 226.20,32.93 229.85,35.00 232.04,37.24 232.77,39.65"/>
    </edge>
    <edge id=":10241816541_11" function="internal">
        <lane id=":10241816541_11_0" index="0" disallow="tram rail_urban rail rail_electric rail_fast ship container cable_car subway aircraft wheelchair scooter drone" speed="4.21" length="0.54" shape="223.41,34.24 223.17,34.73"/>
    </edge>
    <edge id=":10248825759_0" function="internal">
        <lane id=":10248825759_0_0" index="0" allow="pedestrian delivery bicycle" speed="5.56" length="4.07" shape="239.23,50.84 235.16,50.82"/>
    </edge>
    <edge id=":10248825759_1" function="internal">
        <lane id=":10248825759_1_0" index="0" allow="pedestrian delivery bicycle" speed="3.65" length="1.44" shape="239.23,50.84 238.03,50.03"/>
    </edge>
    <edge id=":10248825759_4" function="internal">
        <lane id=":10248825759_4_0" index="0" allow="pedestrian delivery bicycle" speed="3.65" length="3.23" shape="238.03,50.03 237.64,49.23 238.04,48.43 239.25,47.64"/>
    </edge>
    <edge id=":10248825759_2" function="internal">
        <lane id=":10248825759_2_0" index="0" allow="pedestrian delivery bicycle" speed="5.56" length="4.07" shape="235.18,47.62 239.25,47.64"/>
    </edge>
    <edge id=":10248825759_3" function="internal">
        <lane id=":10248825759_3_0" index="0" allow="pedestrian delivery bicycle" speed="3.65" length="1.44" shape="235.18,47.62 236.37,48.42"/>
    </edge>
    <edge id=":10248825759_5" function="internal">
        <lane id=":10248825759_5_0" index="0" allow="pedestrian delivery bicycle" speed="3.65" length="3.23" shape="236.37,48.42 236.77,49.23 236.36,50.02 235.16,50.82"/>
    </edge>
    <edge id=":10248825769_0" function="internal">
        <lane id=":10248825769_0_0" index="0" disallow="tram rail_urban rail rail_electric rail_fast ship container cable_car subway aircraft wheelchair scooter drone" speed="13.89" length="8.28" shape="439.41,28.81 431.14,28.77"/>
    </edge>
    <edge id=":10248825769_1" function="internal">
        <lane id=":10248825769_1_0" index="0" disallow="tram rail_urban rail rail_electric rail_fast ship container cable_car subway aircraft wheelchair scooter drone" speed="13.89" length="8.27" shape="431.16,25.57 439.43,25.61"/>
    </edge>
    <edge id=":10248825770_0" function="internal">
        <lane id=":10248825770_0_0" index="0" disallow="tram rail_urban rail rail_electric rail_fast ship container cable_car subway aircraft wheelchair scooter drone" speed="13.89" length="1.46" shape="239.54,27.73 238.08,27.72"/>
    </edge>
    <edge id=":10248825770_1" function="internal">
        <lane id=":10248825770_1_0" index="0" disallow="tram rail_urban rail rail_electric rail_fast ship container cable_car subway aircraft wheelchair scooter drone" speed="13.89" length="1.47" shape="238.09,24.52 239.56,24.53"/>
    </edge>
    <edge id=":10248857540_0" function="internal">
        <lane id=":10248857540_0_0" index="0" allow="pedestrian delivery bicycle" speed="5.56" length="2.83" shape="407.41,29.72 407.40,32.55"/>
    </edge>
    <edge id=":10248857540_1" function="internal">
        <lane id=":10248857540_1_0" index="0" allow="pedestrian delivery bicycle" speed="3.65" length="1.44" shape="407.41,29.72 406.60,30.91"/>
    </edge>
    <edge id=":10248857540_4" function="internal">
        <lane id=":10248857540_4_0" index="0" allow="pedestrian delivery bicycle" speed="3.65" length="3.23" shape="406.60,30.91 405.80,31.31 405.00,30.90 404.21,29.70"/>
    </edge>
    <edge id=":10248857540_2" function="internal">
        <lane id=":10248857540_2_0" index="0" allow="pedestrian delivery bicycle" speed="5.56" length="2.85" shape="404.20,32.55 404.21,29.70"/>
    </edge>
    <edge id=":10248857540_3" function="internal">
        <lane id=":10248857540_3_0" index="0" allow="pedestrian delivery bicycle" speed="3.65" length="1.44" shape="404.20,32.55 405.01,31.35"/>
    </edge>
    <edge id=":10248857540_5" function="internal">
        <lane id=":10248857540_5_0" index="0" allow="pedestrian delivery bicycle" speed="3.65" length="3.23" shape="405.01,31.35 405.81,30.95 406.61,31.35 407.40,32.55"/>
    </edge>
    <edge id=":10248857549_0" function="internal">
        <lane id=":10248857549_0_0" index="0" allow="pedestrian delivery bicycle" speed="5.56" length="2.80" shape="299.44,29.13 299.42,31.93"/>
    </edge>
    <edge id=":10248857549_1" function="internal">
        <lane id=":10248857549_1_0" index="0" allow="pedestrian delivery bicycle" speed="3.65" length="1.44" shape="299.44,29.13 298.64,30.33"/>
    </edge>
    <edge id=":10248857549_4" function="internal">
        <lane id=":10248857549_4_0" index="0" allow="pedestrian delivery bicycle" speed="3.65" length="3.23" shape="298.64,30.33 297.83,30.73 297.04,30.32 296.24,29.12"/>
    </edge>
    <edge id=":10248857549_2" function="internal">
        <lane id=":10248857549_2_0" index="0" allow="pedestrian delivery bicycle" speed="5.56" length="2.78" shape="296.22,31.90 296.24,29.12"/>
    </edge>
    <edge id=":10248857549_3" function="internal">
        <lane id=":10248857549_3_0" index="0" allow="pedestrian delivery bicycle" speed="3.65" length="1.44" shape="296.22,31.90 297.03,30.71"/>
    </edge>
    <edge id=":10248857549_5" function="internal">
        <lane id=":10248857549_5_0" index="0" allow="pedestrian delivery bicycle" speed="3.65" length="3.23" shape="297.03,30.71 297.83,30.32 298.63,30.72 299.42,31.93"/>
    </edge>
    <edge id=":10252942428_0" function="internal">
        <lane id=":10252942428_0_0" index="0" allow="pedestrian delivery bicycle" speed="4.84" length="4.40" shape="158.69,106.24 158.91,107.27 159.50,108.00 160.46,108.45 161.80,108.61"/>
    </edge>
    <edge id=":10252942428_1" function="internal">
        <lane id=":10252942428_1_0" index="0" allow="pedestrian delivery bicycle" speed="3.65" length="4.67" shape="158.69,106.24 157.92,107.47 157.14,107.89 156.32,107.52 155.49,106.34"/>
    </edge>
    <edge id=":10252942428_2" function="internal">
        <lane id=":10252942428_2_0" index="0" allow="pedestrian delivery bicycle" speed="4.58" length="4.06" shape="152.71,108.54 153.95,108.41 154.83,108.00 155.34,107.31 155.49,106.34"/>
    </edge>
    <edge id=":10252942428_3" function="internal">
        <lane id=":10252942428_3_0" index="0" disallow="tram rail_urban rail rail_electric rail_fast ship container cable_car subway aircraft wheelchair scooter drone" speed="27.78" length="9.08" shape="152.71,108.54 161.80,108.61"/>
        <lane id=":10252942428_3_1" index="1" disallow="tram rail_urban rail rail_electric rail_fast ship container cable_car subway aircraft wheelchair scooter drone" speed="27.78" length="9.08" shape="152.69,111.74 161.77,111.81"/>
        <lane id=":10252942428_3_2" index="2" disallow="tram rail_urban rail rail_electric rail_fast ship container cable_car subway aircraft wheelchair scooter drone" speed="27.78" length="9.08" shape="152.67,114.94 161.75,115.01"/>
    </edge>
    <edge id=":10252942430_0" function="internal">
        <lane id=":10252942430_0_0" index="0" allow="pedestrian delivery bicycle" speed="3.65" length="4.67" shape="199.42,91.95 200.62,92.75 201.02,93.55 200.61,94.35 199.41,95.15"/>
    </edge>
    <edge id=":10252942431_0" function="internal">
        <lane id=":10252942431_0_0" index="0" allow="pedestrian delivery bicycle" speed="5.56" length="4.24" shape="155.48,106.14 155.43,101.90"/>
    </edge>
    <edge id=":10252942431_1" function="internal">
        <lane id=":10252942431_1_0" index="0" allow="pedestrian delivery bicycle" speed="3.65" length="1.44" shape="155.48,106.14 156.24,104.92"/>
    </edge>
    <edge id=":10252942431_4" function="internal">
        <lane id=":10252942431_4_0" index="0" allow="pedestrian delivery bicycle" speed="3.65" length="3.23" shape="156.24,104.92 157.03,104.49 157.84,104.87 158.68,106.04"/>
    </edge>
    <edge id=":10252942431_2" function="internal">
        <lane id=":10252942431_2_0" index="0" allow="pedestrian delivery bicycle" speed="5.56" length="4.15" shape="158.63,101.90 158.68,106.04"/>
    </edge>
    <edge id=":10252942431_3" function="internal">
        <lane id=":10252942431_3_0" index="0" allow="pedestrian delivery bicycle" speed="3.65" length="1.44" shape="158.63,101.90 157.83,103.10"/>
    </edge>