<routes xmlns:xsi="http://www.w3.org/2001/XMLSchema-instance" xsi:noNamespaceSchemaLocation="http://sumo.dlr.de/xsd/routes_file.xsd">
	<vType id="emergency" vClass="emergency" maxSpeed="60"/>
    <vType id="veh_passenger" vClass="passenger" maxSpeed="50"/>
    <trip id="veh0" type="veh_passenger" depart="317.39" departLane="best" departSpeed="max" from="1206350890#2" to="492297083" />
    <trip id="veh1" type="veh_passenger" depart="2106.54" departLane="best" departSpeed="max" from="886446130" to="570600511#0" />
    <trip id="veh2" type="veh_passenger" depart="3312.21" departLane="best" from="842935946#0" to="163047072#5" />
    <trip id="veh3" type="veh_passenger" depart="2689.93" departLane="best" departSpeed="max" from="486563106" to="598689303#3" />
    <trip id="veh4" type="veh_passenger" depart="3037.81" departLane="best" from="503707345#3" to="162931638#6" />
    <trip id="veh5" type="veh_passenger" depart="268.79" departLane="best" departSpeed="max" from="402562120#9" to="1169767227#3" />
    <trip id="veh6" type="veh_passenger" depart="2655.04" departLane="best" departSpeed="max" from="492297083" to="332762597#23" />
    <trip id="veh7" type="veh_passenger" depart="3553.20" departLane="best" departSpeed="max" from="1206350890#10" to="332762597#6" />
    <trip id="veh8" type="veh_passenger" depart="1966.38" departLane="best" departSpeed="max" from="954183036#9" to="-598689303#3" />
    <trip id="veh9" type="veh_passenger" depart="3248.77" departLane="best" from="1008268815#1" to="-1008268819#1" />
    <trip id="veh10" type="veh_passenger" depart="2015.71" departLane="best" from="402562120#1" to="-1008268815#1" />
    <trip id="veh11" type="veh_passenger" depart="1575.03" departLane="best" departSpeed="max" from="332655860#2" to="331329425#2" />
    <trip id="veh12" type="veh_passenger" depart="668.76" departLane="best" departSpeed="max" from="954183036#2" to="59150323#2" />
    <trip id="veh13" type="veh_passenger" depart="1544.41" departLane="best" from="-402562120#2" to="331329425#0" />
    <trip id="veh15" type="veh_passenger" depart="307.12" departLane="best" departSpeed="max" from="332762597#8" to="402562120#4" />
    <trip id="veh16" type="veh_passenger" depart="690.78" departLane="best" departSpeed="max" from="400124203" to="1240693325#2" />
    <trip id="veh17" type="veh_passenger" depart="68.40" departLane="best" from="-684077606#2" to="163042040#0" />
    <trip id="veh23" type="veh_passenger" depart="2003.50" departLane="best" from="1169767227#2" to="-503707345#3" />
    <trip id="veh24" type="veh_passenger" depart="1289.68" departLane="best" from="163047072#3" to="954183036#19" />
    <trip id="veh25" type="veh_passenger" depart="334.83" departLane="best" departSpeed="max" from="-479402133#2" to="402562120#6" />
    <trip id="veh26" type="veh_passenger" depart="3266.82" departLane="best" from="954183036#0" to="684077606#1" />
    <trip id="veh27" type="veh_passenger" depart="1365.01" departLane="best" departSpeed="max" from="-162931629#2" to="-59150323#2" />
    <trip id="veh28" type="veh_passenger" depart="922.84" departLane="best" from="-503707345#4" to="164031250#1" />
    <trip id="veh29" type="veh_passenger" depart="2308.28" departLane="best" departSpeed="max" from="-331329425#2" to="883126624#2" />
    <trip id="veh30" type="veh_passenger" depart="3427.03" departLane="best" departSpeed="max" from="-503707345#3" to="-570600511#2" />
    <trip id="veh31" type="veh_passenger" depart="2798.50" departLane="best" from="954183036#25" to="-1205661270#1" />
    <trip id="veh32" type="veh_passenger" depart="2343.10" departLane="best" from="-598689303#4" to="684077606#8" />
    <trip id="veh33" type="veh_passenger" depart="2121.47" departLane="best" from="-331329425#2" to="954183036#17" />
    <trip id="veh35" type="veh_passenger" depart="590.20" departLane="best" from="1169767228#1" to="1169767227#2" />
    <trip id="veh37" type="veh_passenger" depart="2588.55" departLane="best" departSpeed="max" from="-570600511#0" to="1343341391#0" />
    <trip id="veh38" type="veh_passenger" depart="2508.15" departLane="best" from="1169767226#2" to="598689303#5" />
    <trip id="veh39" type="veh_passenger" depart="2385.76" departLane="best" from="-598689303#1" to="598756947" />
    <trip id="veh40" type="veh_passenger" depart="3455.53" departLane="best" departSpeed="max" from="503707345#4" to="1205661270#3" />
    <trip id="veh41" type="veh_passenger" depart="2298.13" departLane="best" from="598756947" to="402562120#1" />
    <trip id="veh43" type="veh_passenger" depart="2593.13" departLane="best" from="-163047072#5" to="1210334176#1" />
    <trip id="veh44" type="veh_passenger" depart="2869.70" departLane="best" departSpeed="max" from="954183036#25" to="954183036#0" />
    <trip id="veh45" type="veh_passenger" depart="2507.43" departLane="best" from="883126621#0" to="1210334176#1" />
    <trip id="veh46" type="veh_passenger" depart="561.53" departLane="best" from="1169767228#1" to="-684077606#3" />
    <trip id="veh47" type="veh_passenger" depart="2368.25" departLane="best" from="37927290" to="-402562120#4" />
    <trip id="veh48" type="veh_passenger" depart="567.05" departLane="best" departSpeed="max" from="1206350890#3" to="486563106" />
    <trip id="veh49" type="veh_passenger" depart="1464.69" departLane="best" departSpeed="max" from="598689298" to="38134037#5" />
    <trip id="veh50" type="veh_passenger" depart="731.13" departLane="best" from="954183010#0" to="-402562120#10" />
    <trip id="veh51" type="veh_passenger" depart="1777.60" departLane="best" from="38134037#3" to="954183037" />
    <trip id="veh52" type="veh_passenger" depart="1006.89" departLane="best" departSpeed="max" from="-703978560#0" to="-684077606#6" />
    <trip id="veh53" type="veh_passenger" depart="2729.42" departLane="best" departSpeed="max" from="163047072#5" to="1210334158#1" />
    <trip id="veh55" type="veh_passenger" depart="866.24" departLane="best" departSpeed="max" from="-402562120#8" to="1169767227#2" />
    <trip id="veh56" type="veh_passenger" depart="3207.35" departLane="best" departSpeed="max" from="38134037#9" to="954183036#12" />
    <trip id="veh57" type="veh_passenger" depart="2164.46" departLane="best" from="684077606#3" to="-163042040#2" />
    <trip id="veh58" type="veh_passenger" depart="2055.96" departLane="best" departSpeed="max" from="570600511#2" to="399416502#3" />
    <trip id="veh59" type="veh_passenger" depart="2340.18" departLane="best" from="-59150323#2" to="-156770493#1" />
    <trip id="veh60" type="veh_passenger" depart="2781.72" departLane="best" from="492297083" to="842935947#1" />
    <trip id="veh61" type="veh_passenger" depart="2535.56" departLane="best" from="156770493#2" to="332762597#17" />
    <trip id="veh62" type="veh_passenger" depart="3524.70" departLane="best" from="1206350890#8" to="162931638#8" />
    <trip id="veh64" type="veh_passenger" depart="2820.71" departLane="best" departSpeed="max" from="-162931638#5" to="1239628944" />
    <trip id="veh65" type="veh_passenger" depart="1214.92" departLane="best" from="332762597#8" to="1169767228#2" />
    <trip id="veh66" type="veh_passenger" depart="1069.57" departLane="best" from="402562120#4" to="954183036#17" />
    <trip id="veh67" type="veh_passenger" depart="898.09" departLane="best" departSpeed="max" from="332762597#15" to="1169767221#2" />
    <trip id="veh68" type="veh_passenger" depart="3087.13" departLane="best" from="38134037#9" to="883126623" />
    <trip id="veh69" type="veh_passenger" depart="1162.33" departLane="best" from="332762597#18" to="503707345#0" />
    <trip id="veh70" type="veh_passenger" depart="1205.66" departLane="best" from="162931629#2" to="38134037#8" />
    <trip id="veh71" type="veh_passenger" depart="382.97" departLane="best" departSpeed="max" from="964350829" to="163047072#3" />
    <trip id="veh72" type="veh_passenger" depart="1489.19" departLane="best" departSpeed="max" from="1210334176#1" to="-37927290" />
    <trip id="veh73" type="veh_passenger" depart="2826.17" departLane="best" from="-332655860#2" to="-570600511#0" />
    <trip id="veh74" type="veh_passenger" depart="1354.41" departLane="best" departSpeed="max" from="175975104" to="332762597#20" />
    <trip id="veh75" type="veh_passenger" depart="1915.33" departLane="best" from="331329425#0" to="883126623" />
    <trip id="veh76" type="veh_passenger" depart="3030.61" departLane="best" from="157338935#1" to="-479402133#1" />
    <trip id="veh77" type="veh_passenger" depart="1581.80" departLane="best" departSpeed="max" from="886446129#0" to="1206350890#9" />
    <trip id="veh78" type="veh_passenger" depart="3193.85" departLane="best" from="954183036#5" to="954183036#17" />
    <trip id="veh79" type="veh_passenger" depart="1626.99" departLane="best" departSpeed="max" from="29111634#0" to="954183036#4" />
    <trip id="veh80" type="veh_passenger" depart="1978.88" departLane="best" from="332762597#11" to="1169767228#1" />
    <trip id="veh81" type="veh_passenger" depart="1097.98" departLane="best" from="684077606#1" to="163047072#4" />
    <trip id="veh82" type="veh_passenger" depart="2457.05" departLane="best" from="447623861#0" to="332762597#11" />
    <trip id="veh83" type="veh_passenger" depart="3127.72" departLane="best" from="332655860#1" to="-684077606#3" />
    <trip id="veh84" type="veh_passenger" depart="68.99" departLane="best" from="-156770493#1" to="332762597#17" />
    <trip id="veh85" type="veh_passenger" depart="3380.54" departLane="best" departSpeed="max" from="-162931629#1" to="-598689303#0" />
    <trip id="veh86" type="veh_passenger" depart="1032.11" departLane="best" from="684077606#0" to="38134037#5" />
    <trip id="veh89" type="veh_passenger" depart="2995.74" departLane="best" from="402562120#2" to="503707345#3" />
    <trip id="veh90" type="veh_passenger" depart="2182.77" departLane="best" from="479402133#1" to="-163047072#5" />
    <trip id="veh91" type="veh_passenger" depart="3364.33" departLane="best" from="703978560#0" to="703978561#0" />
    <trip id="veh92" type="veh_passenger" depart="3536.77" departLane="best" from="1210334175#1" to="163047072#5" />
    <trip id="veh93" type="veh_passenger" depart="266.42" departLane="best" from="954183036#9" to="684077606#5" />
    <trip id="veh94" type="veh_passenger" depart="1357.11" departLane="best" from="954183036#16" to="1206350890#8" />
    <trip id="veh96" type="veh_passenger" depart="336.51" departLane="best" from="954183036#5" to="332762597#10" />
    <trip id="veh97" type="veh_passenger" depart="843.19" departLane="best" from="332762597#3" to="486370014#0" />
    <trip id="veh98" type="veh_passenger" depart="1669.42" departLane="best" from="954183036#0" to="-598689303#2" />
    <trip id="veh99" type="veh_passenger" depart="2133.78" departLane="best" from="842935948" to="-598689297" />
    <trip id="veh100" type="veh_passenger" depart="2888.88" departLane="best" from="598689303#5" to="-402562120#5" />
    <trip id="veh101" type="veh_passenger" depart="2227.41" departLane="best" from="-503707345#4" to="842935948" />
    <trip id="veh102" type="veh_passenger" depart="419.44" departLane="best" from="-162931638#11" to="1169767221#1" />
    <trip id="veh103" type="veh_passenger" depart="2064.82" departLane="best" departSpeed="max" from="-331329425#1" to="402562120#8" />
    <trip id="veh104" type="veh_passenger" depart="2815.50" departLane="best" from="-684077606#4" to="163047072#3" />
    <trip id="veh105" type="veh_passenger" depart="607.44" departLane="best" from="-162931638#6" to="-598689303#1" />
    <trip id="veh106" type="veh_passenger" depart="2188.76" departLane="best" from="944122211" to="-399416502#3" />
    <trip id="veh107" type="veh_passenger" depart="1282.36" departLane="best" departSpeed="max" from="332762597#15" to="1206350890#16" />
    <trip id="veh109" type="veh_passenger" depart="3160.16" departLane="best" from="598756947" to="-598689298" />
    <trip id="veh110" type="veh_passenger" depart="2919.75" departLane="best" departSpeed="max" from="486563106" to="-163047072#1" />
    <trip id="veh112" type="veh_passenger" depart="3177.23" departLane="best" departSpeed="max" from="-598689303#2" to="-684077606#6" />
    <trip id="veh113" type="veh_passenger" depart="1390.10" departLane="best" from="1206350890#1" to="479402133#1" />
    <trip id="veh114" type="veh_passenger" depart="1512.38" departLane="best" departSpeed="max" from="163047072#4" to="-479402133#2" />
    <trip id="veh115" type="veh_passenger" depart="969.86" departLane="best" departSpeed="max" from="-1008268819#1" to="156770493#1" />
    <trip id="veh116" type="veh_passenger" depart="2722.59" departLane="best" departSpeed="max" from="503707345#4" to="1206350890#12" />
    <trip id="veh117" type="veh_passenger" depart="3223.67" departLane="best" from="-157338935#1" to="954183036#0" />
    <trip id="veh119" type="veh_passenger" depart="2234.46" departLane="best" from="598689303#1" to="-1205661270#2" />
    <trip id="veh121" type="veh_passenger" depart="616.33" departLane="best" from="29111563#2" to="-684077606#8" />
    <trip id="veh122" type="veh_passenger" depart="1716.41" departLane="best" departSpeed="max" from="1169767221#2" to="-1343341391#0" />
    <trip id="veh123" type="veh_passenger" depart="654.43" departLane="best" departSpeed="max" from="954183036#5" to="400124201" />
    <trip id="veh124" type="veh_passenger" depart="3094.41" departLane="best" departSpeed="max" from="954183037" to="163047072#4" />
    <trip id="veh126" type="veh_passenger" depart="1105.65" departLane="best" from="332762597#3" to="399416502#2" />
    <trip id="veh127" type="veh_passenger" depart="2617.06" departLane="best" departSpeed="max" from="332655860#2" to="886446129#1" />
    <trip id="veh128" type="veh_passenger" depart="1939.50" departLane="best" from="684077606#5" to="1206350890#1" />
    <trip id="veh129" type="veh_passenger" depart="2434.35" departLane="best" from="164031250#0" to="1206350890#2" />
    <trip id="veh130" type="veh_passenger" depart="3079.57" departLane="best" from="-598689298" to="-29111563#2" />
    <trip id="veh131" type="veh_passenger" depart="746.29" departLane="best" departSpeed="max" from="944122212" to="-703978560#0" />
    <trip id="veh132" type="veh_passenger" depart="1078.45" departLane="best" from="-479402133#1" to="-598689298" />
    <trip id="veh133" type="veh_passenger" depart="191.24" departLane="best" departSpeed="max" from="1206350890#1" to="684077606#1" />
    <trip id="veh134" type="veh_passenger" depart="143.95" departLane="best" departSpeed="max" from="400124201" to="399416502#2" />
    <trip id="veh135" type="veh_passenger" depart="1212.89" departLane="best" from="1206350890#14" to="-570600511#0" />
    <trip id="veh136" type="veh_passenger" depart="946.55" departLane="best" from="1008268819#7" to="332762597#11" />
    <trip id="veh137" type="veh_passenger" depart="669.31" departLane="best" from="-402562120#4" to="163047072#4" />
    <trip id="veh138" type="veh_passenger" depart="3255.86" departLane="best" departSpeed="max" from="1240693325#1" to="1210334176#2" />
    <trip id="veh139" type="veh_passenger" depart="995.85" departLane="best" from="883126621#0" to="1169767226#2" />
    <trip id="veh140" type="veh_passenger" depart="912.76" departLane="best" departSpeed="max" from="492297083" to="1169767229#1" />
    <trip id="veh141" type="veh_passenger" depart="2512.73" departLane="best" from="1169767228#2" to="-503707345#4" />
    <trip id="veh142" type="veh_passenger" depart="3517.55" departLane="best" departSpeed="max" from="954183036#16" to="332762597#9" />
    <trip id="veh143" type="veh_passenger" depart="601.61" departLane="best" departSpeed="max" from="944122211" to="402562120#4" />
    <trip id="veh144" type="veh_passenger" depart="1641.57" departLane="best" departSpeed="max" from="-163047072#1" to="-332655860#1" />
    <trip id="veh145" type="veh_passenger" depart="446.23" departLane="best" departSpeed="max" from="1206350890#13" to="1169767226#2" />
    <trip id="veh146" type="veh_passenger" depart="2730.65" departLane="best" from="503707345#2" to="-1008268819#6" />
    <trip id="veh147" type="veh_passenger" depart="3458.50" departLane="best" departSpeed="max" from="164031250#0" to="954183010#2" />
    <trip id="veh148" type="veh_passenger" depart="544.58" departLane="best" from="486563107" to="-598689303#3" />
    <trip id="veh149" type="veh_passenger" depart="176.88" departLane="best" from="944122211" to="-684077606#0" />
    <trip id="veh150" type="veh_passenger" depart="982.74" departLane="best" from="332762597#3" to="402562120#2" />
    <trip id="veh152" type="veh_passenger" depart="999.98" departLane="best" from="38134037#9" to="1008268819#2" />
    <trip id="veh153" type="veh_passenger" depart="2575.55" departLane="best" from="1210334176#2" to="332762597#21" />
    <trip id="veh154" type="veh_passenger" depart="2185.79" departLane="best" from="-402562120#3" to="842935946#0" />
    <trip id="veh155" type="veh_passenger" depart="2009.44" departLane="best" from="954183036#0" to="1240693325#3" />
    <trip id="veh156" type="veh_passenger" depart="3518.51" departLane="best" from="332762597#10" to="1210334157#0" />
    <trip id="veh157" type="veh_passenger" depart="830.65" departLane="best" from="162931638#5" to="-163047072#5" />
    <trip id="veh158" type="veh_passenger" depart="2450.10" departLane="best" departSpeed="max" from="479402133#2" to="1169767228#2" />
    <trip id="veh160" type="veh_passenger" depart="2566.83" departLane="best" departSpeed="max" from="1169767227#1" to="1206350890#14" />
    <trip id="veh162" type="veh_passenger" depart="516.50" departLane="best" departSpeed="max" from="-163047072#4" to="684077606#4" />
    <trip id="veh163" type="veh_passenger" depart="2343.42" departLane="best" departSpeed="max" from="332762597#9" to="1008268819#2" />
    <trip id="veh165" type="veh_passenger" depart="2310.59" departLane="best" from="38134037#4" to="162931638#5" />
    <trip id="veh166" type="veh_passenger" depart="2009.18" departLane="best" from="1210334157#1" to="-1008268819#7" />
    <trip id="veh167" type="veh_passenger" depart="2593.30" departLane="best" from="684077606#7" to="-1343341391#0" />
    <trip id="veh168" type="veh_passenger" depart="295.44" departLane="best" from="486563107" to="163042040#0" />
    <trip id="veh169" type="veh_passenger" depart="28.29" departLane="best" from="954183036#6" to="684077606#2" />
    <trip id="veh170" type="veh_passenger" depart="1105.69" departLane="best" departSpeed="max" from="-503707345#4" to="1206350890#3" />
    <trip id="veh171" type="veh_passenger" depart="2883.33" departLane="best" departSpeed="max" from="1206350890#13" to="842935948" />
    <trip id="veh172" type="veh_passenger" depart="95.32" departLane="best" from="402562120#10" to="38134037#6" />
    <trip id="veh173" type="veh_passenger" depart="2521.42" departLane="best" from="1008268819#8" to="-598689298" />
    <trip id="veh175" type="veh_passenger" depart="2442.62" departLane="best" departSpeed="max" from="-332655860#2" to="-402562120#9" />
    <trip id="veh176" type="veh_passenger" depart="861.15" departLane="best" from="-1008268819#5" to="-684077606#4" />
    <trip id="veh177" type="veh_passenger" depart="1325.20" departLane="best" departSpeed="max" from="-1008268819#5" to="-570600511#1" />
    <trip id="veh178" type="veh_passenger" depart="435.46" departLane="best" departSpeed="max" from="332655860#1" to="1205661270#0" />
    <trip id="veh179" type="veh_passenger" depart="905.46" departLane="best" departSpeed="max" from="1206350890#10" to="954183036#6" />
    <trip id="veh180" type="veh_passenger" depart="1018.05" departLane="best" departSpeed="max" from="1210334189#2" to="-402562120#8" />
    <trip id="veh182" type="veh_passenger" depart="843.45" departLane="best" from="402562120#3" to="842935947#1" />
    <trip id="veh183" type="veh_passenger" depart="3172.73" departLane="best" departSpeed="max" from="684077606#4" to="332762597#12" />
    <trip id="veh184" type="veh_passenger" depart="3465.60" departLane="best" from="-402562120#8" to="503707345#4" />
    <trip id="veh185" type="veh_passenger" depart="2329.25" departLane="best" from="331329425#2" to="1169767226#1" />
    <trip id="veh187" type="veh_passenger" depart="3319.36" departLane="best" departSpeed="max" from="842935945#1" to="1205661270#2" />
    <trip id="veh188" type="veh_passenger" depart="623.86" departLane="best" from="-570580858#0" to="-331329425#2" />
    <trip id="veh189" type="veh_passenger" depart="1603.89" departLane="best" from="1205661270#4" to="-598689303#4" />
    <trip id="veh190" type="veh_passenger" depart="202.78" departLane="best" departSpeed="max" from="1210334176#2" to="-1205661270#0" />
    <trip id="veh191" type="veh_passenger" depart="961.45" departLane="best" from="-1205661270#3" to="-162931629#1" />
    <trip id="veh192" type="veh_passenger" depart="1801.81" departLane="best" from="38134037#7" to="332762597#17" />
    <trip id="veh193" type="veh_passenger" depart="2883.92" departLane="best" from="59150323#1" to="954183037" />
    <trip id="veh194" type="veh_passenger" depart="2609.86" departLane="best" from="570580858#1" to="1343341391#0" />
    <trip id="veh195" type="veh_passenger" depart="1887.82" departLane="best" from="954183010#3" to="598689303#6" />
    <trip id="veh196" type="veh_passenger" depart="1152.30" departLane="best" departSpeed="max" from="-703978560#0" to="1169767221#1" />
    <trip id="veh197" type="veh_passenger" depart="2948.32" departLane="best" departSpeed="max" from="1008268819#1" to="954183036#18" />
    <trip id="veh198" type="veh_passenger" depart="2187.13" departLane="best" from="-1343341391#0" to="332762597#16" />
    <trip id="veh200" type="veh_passenger" depart="734.09" departLane="best" from="-59150323#0" to="964350829" />
    <trip id="veh202" type="veh_passenger" depart="1054.51" departLane="best" departSpeed="max" from="-162931638#11" to="-29111634#0" />
    <trip id="veh203" type="veh_passenger" depart="23.30" departLane="best" from="38134037#4" to="162931638#3" />
    <trip id="veh204" type="veh_passenger" depart="1383.63" departLane="best" from="29111563#2" to="163042040#0" />
    <trip id="veh205" type="veh_passenger" depart="699.63" departLane="best" departSpeed="max" from="1239628943#0" to="479402133#2" />
    <trip id="veh206" type="veh_passenger" depart="2933.32" departLane="best" departSpeed="max" from="-402562120#6" to="-59150323#1" />
    <trip id="veh207" type="veh_passenger" depart="3092.94" departLane="best" from="954183036#20" to="331329425#0" />
    <trip id="veh209" type="veh_passenger" depart="3037.91" departLane="best" from="-1205661270#1" to="-399416502#3" />
    <trip id="veh210" type="veh_passenger" depart="3493.47" departLane="best" from="684077606#0" to="332762597#24" />
    <trip id="veh212" type="veh_passenger" depart="984.45" departLane="best" departSpeed="max" from="954183010#0" to="-162931638#5" />
    <trip id="veh213" type="veh_passenger" depart="1035.70" departLane="best" departSpeed="max" from="-402562120#4" to="703978560#0" />
    <trip id="veh214" type="veh_passenger" depart="2733.78" departLane="best" from="399416502#2" to="-156770493#2" />
    <trip id="veh215" type="veh_passenger" depart="3488.51" departLane="best" from="1169767221#2" to="162931638#1" />
    <trip id="veh216" type="veh_passenger" depart="1947.40" departLane="best" from="-163047072#5" to="944122211" />
    <trip id="veh217" type="veh_passenger" depart="3140.47" departLane="best" departSpeed="max" from="-1343341391#0" to="954183036#19" />
    <trip id="veh218" type="veh_passenger" depart="2479.84" departLane="best" from="1169767228#1" to="-1008268819#7" />
    <trip id="veh221" type="veh_passenger" depart="2326.61" departLane="best" from="-162931638#8" to="570580858#1" />
    <trip id="veh224" type="veh_passenger" depart="2977.86" departLane="best" departSpeed="max" from="570580858#0" to="1210334176#2" />
    <trip id="veh226" type="veh_passenger" depart="485.66" departLane="best" departSpeed="max" from="-59150323#2" to="-1343341391#0" />
    <trip id="veh227" type="veh_passenger" depart="549.68" departLane="best" from="-684077606#7" to="598756947" />
    <trip id="veh229" type="veh_passenger" depart="2942.36" departLane="best" departSpeed="max" from="684077606#6" to="38134037#6" />
    <trip id="veh231" type="veh_passenger" depart="1023.61" departLane="best" departSpeed="max" from="492297089" to="684077606#8" />
    <trip id="veh233" type="veh_passenger" depart="1607.27" departLane="best" departSpeed="max" from="-402562120#1" to="-1205661270#2" />
    <trip id="veh234" type="veh_passenger" depart="1960.30" departLane="best" from="1210334175#1" to="598689303#4" />
    <trip id="veh236" type="veh_passenger" depart="2642.80" departLane="best" from="486370014#0" to="156770493#2" />
    <trip id="veh237" type="veh_passenger" depart="2562.86" departLane="best" from="954183036#9" to="1008268819#7" />
    <trip id="veh238" type="veh_passenger" depart="992.18" departLane="best" from="1206350890#10" to="1008268815#0" />
    <trip id="veh239" type="veh_passenger" depart="2038.59" departLane="best" from="-162931629#2" to="1008268819#8" />
    <trip id="veh240" type="veh_passenger" depart="522.49" departLane="best" departSpeed="max" from="400124201" to="684077606#9" />
    <trip id="veh242" type="veh_passenger" depart="3108.20" departLane="best" departSpeed="max" from="332762597#17" to="-399416502#3" />
    <trip id="veh243" type="veh_passenger" depart="89.50" departLane="best" from="842935947#0" to="-479402133#1" />
    <trip id="veh244" type="veh_passenger" depart="2180.06" departLane="best" departSpeed="max" from="-332655860#1" to="684077606#9" />
    <trip id="veh245" type="veh_passenger" depart="962.99" departLane="best" from="598689303#2" to="842935946#1" />
    <trip id="veh246" type="veh_passenger" depart="3362.28" departLane="best" from="1169767229#4" to="59150323#1" />
    <trip id="veh248" type="veh_passenger" depart="933.02" departLane="best" departSpeed="max" from="-162931638#1" to="-402562120#8" />
    <trip id="veh249" type="veh_passenger" depart="3064.00" departLane="best" departSpeed="max" from="332762597#9" to="954183036#21" />
    <trip id="veh250" type="veh_passenger" depart="198.92" departLane="best" departSpeed="max" from="-1205661270#1" to="162931638#3" />
    <trip id="veh251" type="veh_passenger" depart="1625.69" departLane="best" from="332762597#20" to="332762597#23" />
    <trip id="veh253" type="veh_passenger" depart="25.97" departLane="best" from="886446130" to="162931638#3" />
    <trip id="veh254" type="veh_passenger" depart="700.36" departLane="best" from="-1205661270#0" to="1210334175#0" />
    <trip id="veh255" type="veh_passenger" depart="1067.17" departLane="best" from="-684077606#1" to="886446131" />
    <trip id="veh257" type="veh_passenger" depart="3135.66" departLane="best" from="175975104" to="-703978560#1" />
    <trip id="veh258" type="veh_passenger" depart="3264.87" departLane="best" from="1240693325#3" to="954183036#15" />
    <trip id="veh259" type="veh_passenger" depart="192.23" departLane="best" from="332655860#1" to="598689303#2" />
    <trip id="veh260" type="veh_passenger" depart="833.45" departLane="best" from="-163047072#0" to="1206350890#8" />
    <trip id="veh261" type="veh_passenger" depart="8.08" departLane="best" from="-598689303#1" to="-162931629#1" />
    <trip id="veh262" type="veh_passenger" depart="740.68" departLane="best" from="38134037#5" to="163047072#1" />
    <trip id="veh263" type="veh_passenger" depart="116.74" departLane="best" from="-684077606#1" to="954183036#17" />
    <trip id="veh264" type="veh_passenger" depart="1267.21" departLane="best" from="1169767227#2" to="-402562120#6" />
    <trip id="veh265" type="veh_passenger" depart="3561.62" departLane="best" departSpeed="max" from="954183036#8" to="1008268819#6" />
    <trip id="veh266" type="veh_passenger" depart="264.68" departLane="best" departSpeed="max" from="-162931638#11" to="-163047072#1" />
    <trip id="veh267" type="veh_passenger" depart="1754.79" departLane="best" departSpeed="max" from="954183036#9" to="1008268819#8" />
    <trip id="veh268" type="veh_passenger" depart="2770.90" departLane="best" from="570600511#2" to="-598689303#3" />
    <trip id="veh269" type="veh_passenger" depart="394.50" departLane="best" from="703978560#0" to="1240693325#2" />
    <trip id="veh270" type="emergency" depart="3184.45" departLane="best" departSpeed="max" from="-570580858#0" to="883126623" />
    <trip id="veh271" type="veh_passenger" depart="440.48" departLane="best" from="1206350890#11" to="29111563#2" />
    <trip id="veh272" type="veh_passenger" depart="3140.45" departLane="best" from="598689303#5" to="486370014#0" />
    <trip id="veh273" type="veh_passenger" depart="517.60" departLane="best" departSpeed="max" from="1210334158#1" to="944122212" />
    <trip id="veh274" type="veh_passenger" depart="2352.26" departLane="best" from="883126623" to="-399416502#3" />
    <trip id="veh275" type="veh_passenger" depart="2086.26" departLane="best" from="-684077606#7" to="1240693325#2" />
    <trip id="veh276" type="veh_passenger" depart="826.29" departLane="best" departSpeed="max" from="-332655860#1" to="-684077606#9" />
    <trip id="veh277" type="veh_passenger" depart="3303.15" departLane="best" from="1169767221#0" to="598689303#0" />
    <trip id="veh278" type="veh_passenger" depart="1828.16" departLane="best" from="1240693325#2" to="59150323#0" />
    <trip id="veh279" type="veh_passenger" depart="928.03" departLane="best" from="954183010#0" to="-1008268819#1" />
    <trip id="veh280" type="veh_passenger" depart="188.81" departLane="best" from="402562120#5" to="156785163" />