<?xml version="1.0" encoding="UTF-8"?>

<!-- generated on 2025-05-16 00:49:19.255456 by osmWebWizard.py v1_22_0+0002-63e50f52594
<configuration>
    <net-file value="C:\Users\Administrator\Sumo\2025-05-16-00-49-14\osm.net.xml.gz"/>
    <output-trip-file value="C:\Users\Administrator\Sumo\2025-05-16-00-49-14\osm.motorcycle.trips.xml"/>
    <route-file value="C:\Users\Administrator\Sumo\2025-05-16-00-49-14\osm.motorcycle.rou.xml"/>
    <prefix value="motorcycle"/>
    <trip-attributes value="departLane=&quot;best&quot;"/>
    <fringe-start-attributes value="departSpeed=&quot;max&quot;"/>
    <vehicle-class value="motorcycle"/>
    <fringe-factor value="60"/>
    <vclass value="motorcycle"/>
    <via-edge-types value="highway.motorway,highway.motorway_link,highway.trunk_link,highway.primary_link,highway.secondary_link,highway.tertiary_link"/>
    <max-distance value="1200.0"/>
    <remove-loops value="True"/>
    <validate value="True"/>
    <insertion-density value="400.0"/>
</configuration>
-->

<!-- generated on 2025-05-16 00:49:19 by Eclipse SUMO duarouter Version 1.22.0
<duarouterConfiguration xmlns:xsi="http://www.w3.org/2001/XMLSchema-instance" xsi:noNamespaceSchemaLocation="http://sumo.dlr.de/xsd/duarouterConfiguration.xsd">

    <input>
        <net-file value="C:\Users\Administrator\Sumo\2025-05-16-00-49-14\osm.net.xml.gz"/>
        <route-files value="C:\Users\Administrator\Sumo\2025-05-16-00-49-14\osm.motorcycle.trips.xml"/>
    </input>

    <output>
        <output-file value="C:\Users\Administrator\Sumo\2025-05-16-00-49-14\osm.motorcycle.trips.xml.tmp"/>
        <alternatives-output value="NUL"/>
        <write-trips value="true"/>
    </output>

    <processing>
        <remove-loops value="true"/>
    </processing>

    <time>
        <begin value="0.0"/>
        <end value="3600.0"/>
    </time>

    <report>
        <no-warnings value="true"/>
        <ignore-errors value="true"/>
        <no-step-log value="true"/>
    </report>

</duarouterConfiguration>
-->

<routes xmlns:xsi="http://www.w3.org/2001/XMLSchema-instance" xsi:noNamespaceSchemaLocation="http://sumo.dlr.de/xsd/routes_file.xsd">
    <vType id="motorcycle_motorcycle" vClass="motorcycle" maxSpeed="40"/>
    <trip id="motorcycle1" type="motorcycle_motorcycle" depart="1.78" departLane="best" departSpeed="max" from="-601595923#1" to="11009523"/>
    <trip id="motorcycle3" type="motorcycle_motorcycle" depart="5.33" departLane="best" departSpeed="max" from="944122214#0" to="-944122214#0"/>
    <trip id="motorcycle4" type="motorcycle_motorcycle" depart="7.10" departLane="best" departSpeed="max" from="11553022" to="770552092#0"/>
    <trip id="motorcycle5" type="motorcycle_motorcycle" depart="8.88" departLane="best" departSpeed="max" from="-601595923#1" to="11558435#1"/>
    <trip id="motorcycle6" type="motorcycle_motorcycle" depart="10.66" departLane="best" departSpeed="max" from="-218106748#1" to="11009523"/>
    <trip id="motorcycle8" type="motorcycle_motorcycle" depart="14.21" departLane="best" departSpeed="max" from="-601595923#1" to="601595923#0"/>
    <trip id="motorcycle9" type="motorcycle_motorcycle" depart="15.98" departLane="best" from="707448985" to="218106748#0"/>
    <trip id="motorcycle10" type="motorcycle_motorcycle" depart="17.76" departLane="best" from="707348511" to="-704134620"/>
    <trip id="motorcycle11" type="motorcycle_motorcycle" depart="19.54" departLane="best" departSpeed="max" from="11553022" to="-944122214#0"/>
    <trip id="motorcycle13" type="motorcycle_motorcycle" depart="23.09" departLane="best" departSpeed="max" from="-218106748#1" to="-944122214#0"/>
    <trip id="motorcycle15" type="motorcycle_motorcycle" depart="26.64" departLane="best" from="707352351" to="710176322"/>
    <trip id="motorcycle16" type="motorcycle_motorcycle" depart="28.42" departLane="best" departSpeed="max" from="211891422" to="946030649#1"/>
    <trip id="motorcycle17" type="motorcycle_motorcycle" depart="30.19" departLane="best" departSpeed="max" from="11553022" to="28924633#1"/>
    <trip id="motorcycle20" type="motorcycle_motorcycle" depart="35.52" departLane="best" departSpeed="max" from="707348510" to="-944122214#0"/>
    <trip id="motorcycle21" type="motorcycle_motorcycle" depart="37.30" departLane="best" departSpeed="max" from="-601595923#1" to="1109218707#1"/>
    <trip id="motorcycle22" type="motorcycle_motorcycle" depart="39.07" departLane="best" departSpeed="max" from="-218106748#1" to="11009523"/>
    <trip id="motorcycle23" type="motorcycle_motorcycle" depart="40.85" departLane="best" departSpeed="max" from="-218106748#1" to="11009523"/>
    <trip id="motorcycle25" type="motorcycle_motorcycle" depart="44.40" departLane="best" departSpeed="max" from="11553022" to="11009523"/>
    <trip id="motorcycle26" type="motorcycle_motorcycle" depart="46.18" departLane="best" departSpeed="max" from="-601595923#1" to="946030649#1"/>
    <trip id="motorcycle28" type="motorcycle_motorcycle" depart="49.73" departLane="best" departSpeed="max" from="-601595923#1" to="710176322"/>
    <trip id="motorcycle32" type="motorcycle_motorcycle" depart="56.83" departLane="best" from="770552095#7" to="710176322"/>
    <trip id="motorcycle33" type="motorcycle_motorcycle" depart="58.61" departLane="best" departSpeed="max" from="-601595923#1" to="896872743"/>
    <trip id="motorcycle34" type="motorcycle_motorcycle" depart="60.38" departLane="best" from="-946030649#1" to="11009523"/>
    <trip id="motorcycle35" type="motorcycle_motorcycle" depart="62.16" departLane="best" departSpeed="max" from="-601595923#1" to="946030649#1"/>
    <trip id="motorcycle37" type="motorcycle_motorcycle" depart="65.71" departLane="best" from="704134619" to="11553052#1"/>
    <trip id="motorcycle38" type="motorcycle_motorcycle" depart="67.49" departLane="best" departSpeed="max" from="944122214#0" to="11558435#1"/>
    <trip id="motorcycle39" type="motorcycle_motorcycle" depart="69.26" departLane="best" departSpeed="max" from="-601595923#1" to="11009523"/>
    <trip id="motorcycle40" type="motorcycle_motorcycle" depart="71.04" departLane="best" departSpeed="max" from="211891422" to="11009523"/>
    <trip id="motorcycle41" type="motorcycle_motorcycle" depart="72.82" departLane="best" departSpeed="max" from="211891422" to="946030649#1"/>
    <trip id="motorcycle42" type="motorcycle_motorcycle" depart="74.59" departLane="best" departSpeed="max" from="11553022" to="11009523"/>
    <trip id="motorcycle43" type="motorcycle_motorcycle" depart="76.37" departLane="best" from="951487948#0" to="11558435#1"/>
    <trip id="motorcycle44" type="motorcycle_motorcycle" depart="78.14" departLane="best" departSpeed="max" from="-218106748#1" to="-944122214#0"/>
    <trip id="motorcycle46" type="motorcycle_motorcycle" depart="81.70" departLane="best" departSpeed="max" from="707348510" to="11558435#1"/>
    <trip id="motorcycle47" type="motorcycle_motorcycle" depart="83.47" departLane="best" departSpeed="max" from="-218106748#1" to="11553052#1"/>
    <trip id="motorcycle48" type="motorcycle_motorcycle" depart="85.25" departLane="best" from="951487948#0" to="11558435#1"/>
    <trip id="motorcycle50" type="motorcycle_motorcycle" depart="88.80" departLane="best" departSpeed="max" from="-218106748#1" to="707448988#2"/>
    <trip id="motorcycle51" type="motorcycle_motorcycle" depart="90.58" departLane="best" departSpeed="max" from="707348510" to="11558435#1"/>
    <trip id="motorcycle52" type="motorcycle_motorcycle" depart="92.35" departLane="best" departSpeed="max" from="-601595923#1" to="601595923#0"/>
    <trip id="motorcycle53" type="motorcycle_motorcycle" depart="94.13" departLane="best" departSpeed="max" from="-218106748#1" to="11558435#1"/>
    <trip id="motorcycle54" type="motorcycle_motorcycle" depart="95.90" departLane="best" departSpeed="max" from="11553022" to="-946030649#1"/>
    <trip id="motorcycle56" type="motorcycle_motorcycle" depart="99.46" departLane="best" departSpeed="max" from="211891422" to="11009523"/>
    <trip id="motorcycle58" type="motorcycle_motorcycle" depart="103.01" departLane="best" departSpeed="max" from="-601595923#1" to="601595923#0"/>
    <trip id="motorcycle59" type="motorcycle_motorcycle" depart="104.78" departLane="best" departSpeed="max" from="211891422" to="-944122214#0"/>
    <trip id="motorcycle60" type="motorcycle_motorcycle" depart="106.56" departLane="best" departSpeed="max" from="707348510" to="1334956949#0"/>
    <trip id="motorcycle61" type="motorcycle_motorcycle" depart="108.34" departLane="best" departSpeed="max" from="707348510" to="11558435#1"/>
    <trip id="motorcycle62" type="motorcycle_motorcycle" depart="110.11" departLane="best" from="-1109218707#0" to="11553052#1"/>
    <trip id="motorcycle63" type="motorcycle_motorcycle" depart="111.89" departLane="best" departSpeed="max" from="-218106748#1" to="946030649#1"/>
    <trip id="motorcycle64" type="motorcycle_motorcycle" depart="113.66" departLane="best" departSpeed="max" from="944122214#0" to="710176322"/>
    <trip id="motorcycle65" type="motorcycle_motorcycle" depart="115.44" departLane="best" from="770552092#0" to="-944122214#0"/>
    <trip id="motorcycle67" type="motorcycle_motorcycle" depart="118.99" departLane="best" departSpeed="max" from="-218106748#1" to="11558435#1"/>
    <trip id="motorcycle68" type="motorcycle_motorcycle" depart="120.77" departLane="best" departSpeed="max" from="-218106748#1" to="710176322"/>
    <trip id="motorcycle69" type="motorcycle_motorcycle" depart="122.54" departLane="best" departSpeed="max" from="707348510" to="-944122214#0"/>
    <trip id="motorcycle70" type="motorcycle_motorcycle" depart="124.32" departLane="best" from="1217914838" to="28924633#0"/>
    <trip id="motorcycle71" type="motorcycle_motorcycle" depart="126.10" departLane="best" departSpeed="max" from="-601595923#1" to="896872743"/>
    <trip id="motorcycle72" type="motorcycle_motorcycle" depart="127.87" departLane="best" departSpeed="max" from="11553022" to="11009523"/>
    <trip id="motorcycle73" type="motorcycle_motorcycle" depart="129.65" departLane="best" departSpeed="max" from="211891422" to="710176322"/>
    <trip id="motorcycle74" type="motorcycle_motorcycle" depart="131.42" departLane="best" departSpeed="max" from="-601595923#1" to="11553052#1"/>
    <trip id="motorcycle76" type="motorcycle_motorcycle" depart="134.98" departLane="best" departSpeed="max" from="11553022" to="11558435#1"/>
    <trip id="motorcycle77" type="motorcycle_motorcycle" depart="136.75" departLane="best" departSpeed="max" from="-218106748#1" to="11009523"/>
    <trip id="motorcycle79" type="motorcycle_motorcycle" depart="140.30" departLane="best" departSpeed="max" from="-601595923#1" to="11009523"/>
    <trip id="motorcycle81" type="motorcycle_motorcycle" depart="143.86" departLane="best" departSpeed="max" from="-601595923#1" to="946030649#1"/>
    <trip id="motorcycle82" type="motorcycle_motorcycle" depart="145.63" departLane="best" departSpeed="max" from="944122214#0" to="-944122214#0"/>
    <trip id="motorcycle83" type="motorcycle_motorcycle" depart="147.41" departLane="best" departSpeed="max" from="-601595923#1" to="601595923#0"/>
    <trip id="motorcycle84" type="motorcycle_motorcycle" depart="149.18" departLane="best" departSpeed="max" from="-601595923#1" to="-944122214#0"/>
    <trip id="motorcycle86" type="motorcycle_motorcycle" depart="152.74" departLane="best" departSpeed="max" from="11553022" to="710176322"/>
    <trip id="motorcycle87" type="motorcycle_motorcycle" depart="154.51" departLane="best" from="-707352351" to="11009523"/>
    <trip id="motorcycle88" type="motorcycle_motorcycle" depart="156.29" departLane="best" departSpeed="max" from="-218106748#1" to="11558435#1"/>
    <trip id="motorcycle89" type="motorcycle_motorcycle" depart="158.06" departLane="best" departSpeed="max" from="11553022" to="11558435#1"/>
    <trip id="motorcycle91" type="motorcycle_motorcycle" depart="161.62" departLane="best" departSpeed="max" from="944122214#0" to="-944122214#0"/>
    <trip id="motorcycle92" type="motorcycle_motorcycle" depart="163.39" departLane="best" departSpeed="max" from="11553022" to="11553052#1"/>
    <trip id="motorcycle94" type="motorcycle_motorcycle" depart="166.94" departLane="best" departSpeed="max" from="-601595923#1" to="11558435#1"/>
    <trip id="motorcycle95" type="motorcycle_motorcycle" depart="168.72" departLane="best" departSpeed="max" from="11553022" to="11009523"/>
    <trip id="motorcycle96" type="motorcycle_motorcycle" depart="170.50" departLane="best" departSpeed="max" from="-601595923#1" to="946030649#1"/>
    <trip id="motorcycle97" type="motorcycle_motorcycle" depart="172.27" departLane="best" departSpeed="max" from="11553022" to="770552095#6"/>
    <trip id="motorcycle98" type="motorcycle_motorcycle" depart="174.05" departLane="best" departSpeed="max" from="211891422" to="-944122214#0"/>
    <trip id="motorcycle99" type="motorcycle_motorcycle" depart="175.82" departLane="best" from="951487948#2" to="710176322"/>
    <trip id="motorcycle101" type="motorcycle_motorcycle" depart="179.38" departLane="best" from="771567427#1" to="11005921#2"/>
    <trip id="motorcycle102" type="motorcycle_motorcycle" depart="181.15" departLane="best" departSpeed="max" from="211891422" to="11009523"/>
    <trip id="motorcycle103" type="motorcycle_motorcycle" depart="182.93" departLane="best" departSpeed="max" from="11553022" to="-944122214#0"/>
    <trip id="motorcycle104" type="motorcycle_motorcycle" depart="184.71" departLane="best" departSpeed="max" from="11553022" to="-946030649#1"/>
    <trip id="motorcycle105" type="motorcycle_motorcycle" depart="186.48" departLane="best" departSpeed="max" from="-601595923#1" to="710176322"/>
    <trip id="motorcycle106" type="motorcycle_motorcycle" depart="188.26" departLane="best" departSpeed="max" from="11553022" to="11558435#1"/>
    <trip id="motorcycle108" type="motorcycle_motorcycle" depart="191.81" departLane="best" departSpeed="max" from="211891422" to="707448988#1"/>
    <trip id="motorcycle109" type="motorcycle_motorcycle" depart="193.59" departLane="best" from="-29279246#1" to="11553052#1"/>
    <trip id="motorcycle111" type="motorcycle_motorcycle" depart="197.14" departLane="best" departSpeed="max" from="211891422" to="710176322"/>
    <trip id="motorcycle113" type="motorcycle_motorcycle" depart="200.69" departLane="best" departSpeed="max" from="211891422" to="770552095#1"/>
    <trip id="motorcycle114" type="motorcycle_motorcycle" depart="202.47" departLane="best" from="37458955#1" to="946030649#1"/>
    <trip id="motorcycle115" type="motorcycle_motorcycle" depart="204.24" departLane="best" departSpeed="max" from="-218106748#1" to="11009523"/>
    <trip id="motorcycle117" type="motorcycle_motorcycle" depart="207.79" departLane="best" departSpeed="max" from="-601595923#1" to="-944122214#0"/>
    <trip id="motorcycle121" type="motorcycle_motorcycle" depart="214.90" departLane="best" departSpeed="max" from="211891422" to="946030649#1"/>
    <trip id="motorcycle122" type="motorcycle_motorcycle" depart="216.67" departLane="best" departSpeed="max" from="-601595923#1" to="707448988#0"/>
    <trip id="motorcycle123" type="motorcycle_motorcycle" depart="218.45" departLane="best" departSpeed="max" from="-601595923#1" to="11553052#1"/>
    <trip id="motorcycle124" type="motorcycle_motorcycle" depart="220.23" departLane="best" departSpeed="max" from="707348510" to="11553052#1"/>
    <trip id="motorcycle125" type="motorcycle_motorcycle" depart="222.00" departLane="best" from="-946030649#1" to="710176322"/>
    <trip id="motorcycle126" type="motorcycle_motorcycle" depart="223.78" departLane="best" departSpeed="max" from="-218106748#1" to="11558435#1"/>
    <trip id="motorcycle128" type="motorcycle_motorcycle" depart="227.33" departLane="best" departSpeed="max" from="-218106748#1" to="11009523"/>
    <trip id="motorcycle129" type="motorcycle_motorcycle" depart="229.11" departLane="best" departSpeed="max" from="-601595923#1" to="946030649#1"/>
    <trip id="motorcycle131" type="motorcycle_motorcycle" depart="232.66" departLane="best" departSpeed="max" from="11553022" to="-946030649#1"/>
    <trip id="motorcycle132" type="motorcycle_motorcycle" depart="234.43" departLane="best" from="770552095#2" to="704134621#2"/>
    <trip id="motorcycle133" type="motorcycle_motorcycle" depart="236.21" departLane="best" departSpeed="max" from="211891422" to="946030649#1"/>
    <trip id="motorcycle134" type="motorcycle_motorcycle" depart="237.99" departLane="best" from="704134619" to="218106748#0"/>
    <trip id="motorcycle135" type="motorcycle_motorcycle" depart="239.76" departLane="best" from="707448988#1" to="11553052#1"/>
    <trip id="motorcycle136" type="motorcycle_motorcycle" depart="241.54" departLane="best" from="704134621#2" to="946030649#1"/>
    <trip id="motorcycle137" type="motorcycle_motorcycle" depart="243.31" departLane="best" departSpeed="max" from="-218106748#1" to="-944122214#0"/>
    <trip id="motorcycle138" type="motorcycle_motorcycle" depart="245.09" departLane="best" departSpeed="max" from="218106748#1" to="29279246#1"/>
    <trip id="motorcycle139" type="motorcycle_motorcycle" depart="246.87" departLane="best" departSpeed="max" from="-601595923#1" to="601595923#0"/>
    <trip id="motorcycle140" type="motorcycle_motorcycle" depart="248.64" departLane="best" departSpeed="max" from="707348510" to="11009523"/>
    <trip id="motorcycle141" type="motorcycle_motorcycle" depart="250.42" departLane="best" from="-37458955#1" to="11009523"/>
    <trip id="motorcycle142" type="motorcycle_motorcycle" depart="252.19" departLane="best" departSpeed="max" from="211891422" to="946030649#1"/>
    <trip id="motorcycle143" type="motorcycle_motorcycle" depart="253.97" departLane="best" from="771567427#0" to="-944122214#0"/>
    <trip id="motorcycle144" type="motorcycle_motorcycle" depart="255.75" departLane="best" departSpeed="max" from="11553022" to="11009523"/>
    <trip id="motorcycle145" type="motorcycle_motorcycle" depart="257.52" departLane="best" from="1109218707#1" to="710176322"/>
    <trip id="motorcycle147" type="motorcycle_motorcycle" depart="261.07" departLane="best" departSpeed="max" from="707348510" to="28924633#1"/>
    <trip id="motorcycle149" type="motorcycle_motorcycle" depart="264.63" departLane="best" departSpeed="max" from="-218106748#1" to="946030649#1"/>
    <trip id="motorcycle152" type="motorcycle_motorcycle" depart="269.95" departLane="best" from="-28924633#0" to="-944122214#0"/>
    <trip id="motorcycle153" type="motorcycle_motorcycle" depart="271.73" departLane="best" from="-770552092#1" to="946030649#1"/>
    <trip id="motorcycle154" type="motorcycle_motorcycle" depart="273.51" departLane="best" departSpeed="max" from="707348510" to="770552095#6"/>
    <trip id="motorcycle156" type="motorcycle_motorcycle" depart="277.06" departLane="best" departSpeed="max" from="-601595923#1" to="-944122214#0"/>
    <trip id="motorcycle157" type="motorcycle_motorcycle" depart="278.83" departLane="best" departSpeed="max" from="707348510" to="946030649#1"/>
    <trip id="motorcycle159" type="motorcycle_motorcycle" depart="282.39" departLane="best" from="-29279246#1" to="946030649#1"/>
    <trip id="motorcycle161" type="motorcycle_motorcycle" depart="285.94" departLane="best" from="707448985" to="946030649#1"/>
    <trip id="motorcycle162" type="motorcycle_motorcycle" depart="287.71" departLane="best" departSpeed="max" from="-218106748#1" to="710176322"/>
    <trip id="motorcycle163" type="motorcycle_motorcycle" depart="289.49" departLane="best" from="1135436650#1" to="946030649#1"/>
    <trip id="motorcycle164" type="motorcycle_motorcycle" depart="291.27" departLane="best" departSpeed="max" from="707348510" to="771567427#0"/>
    <trip id="motorcycle165" type="motorcycle_motorcycle" depart="293.04" departLane="best" from="707448985" to="11009523"/>
    <trip id="motorcycle166" type="motorcycle_motorcycle" depart="294.82" departLane="best" departSpeed="max" from="707348510" to="-944122214#0"/>
    <trip id="motorcycle168" type="motorcycle_motorcycle" depart="298.37" departLane="best" departSpeed="max" from="-601595923#1" to="710176322"/>
    <trip id="motorcycle169" type="motorcycle_motorcycle" depart="300.15" departLane="best" departSpeed="max" from="11553022" to="11553052#1"/>
    <trip id="motorcycle170" type="motorcycle_motorcycle" depart="301.92" departLane="best" departSpeed="max" from="707348510" to="11009523"/>
    <trip id="motorcycle171" type="motorcycle_motorcycle" depart="303.70" departLane="best" departSpeed="max" from="-218106748#1" to="11009523"/>
    <trip id="motorcycle172" type="motorcycle_motorcycle" depart="305.47" departLane="best" from="-1109218707#1" to="771567427#0"/>
    <trip id="motorcycle175" type="motorcycle_motorcycle" depart="310.80" departLane="best" departSpeed="max" from="944122214#0" to="11558435#1"/>
    <trip id="motorcycle176" type="motorcycle_motorcycle" depart="312.58" departLane="best" departSpeed="max" from="944122214#0" to="-944122214#0"/>
    <trip id="motorcycle179" type="motorcycle_motorcycle" depart="317.91" departLane="best" departSpeed="max" from="-218106748#1" to="11558435#1"/>
    <trip id="motorcycle180" type="motorcycle_motorcycle" depart="319.68" departLane="best" departSpeed="max" from="707348510" to="11553052#1"/>
    <trip id="motorcycle181" type="motorcycle_motorcycle" depart="321.46" departLane="best" departSpeed="max" from="211891422" to="11558435#1"/>
    <trip id="motorcycle183" type="motorcycle_motorcycle" depart="325.01" departLane="best" departSpeed="max" from="-601595923#1" to="707348511"/>
    <trip id="motorcycle184" type="motorcycle_motorcycle" depart="326.79" departLane="best" from="-1109218707#0" to="946030649#1"/>
    <trip id="motorcycle185" type="motorcycle_motorcycle" depart="328.56" departLane="best" departSpeed="max" from="211891422" to="707448988#1"/>
    <trip id="motorcycle187" type="motorcycle_motorcycle" depart="332.11" departLane="best" departSpeed="max" from="11553022" to="-944122214#0"/>
    <trip id="motorcycle188" type="motorcycle_motorcycle" depart="333.89" departLane="best" from="704134621#2" to="11553052#1"/>
    <trip id="motorcycle189" type="motorcycle_motorcycle" depart="335.67" departLane="best" from="898268988#0" to="-770552092#1"/>
    <trip id="motorcycle190" type="motorcycle_motorcycle" depart="337.44" departLane="best" departSpeed="max" from="707348510" to="11553052#1"/>
    <trip id="motorcycle191" type="motorcycle_motorcycle" depart="339.22" departLane="best" from="770552092#1" to="11553052#1"/>
    <trip id="motorcycle192" type="motorcycle_motorcycle" depart="340.99" departLane="best" departSpeed="max" from="11553022" to="1135436652#1"/>
    <trip id="motorcycle193" type="motorcycle_motorcycle" depart="342.77" departLane="best" departSpeed="max" from="-218106748#1" to="11558435#1"/>
    <trip id="motorcycle197" type="motorcycle_motorcycle" depart="349.87" departLane="best" from="-1109218707#0" to="1109218707#0"/>
    <trip id="motorcycle199" type="motorcycle_motorcycle" depart="353.43" departLane="best" from="704134619" to="11558435#1"/>
    <trip id="motorcycle200" type="motorcycle_motorcycle" depart="355.20" departLane="best" departSpeed="max" from="11553022" to="11009523"/>
    <trip id="motorcycle201" type="motorcycle_motorcycle" depart="356.98" departLane="best" departSpeed="max" from="11553022" to="-946030649#1"/>
    <trip id="motorcycle202" type="motorcycle_motorcycle" depart="358.75" departLane="best" departSpeed="max" from="707348510" to="11009523"/>
    <trip id="motorcycle203" type="motorcycle_motorcycle" depart="360.53" departLane="best" departSpeed="max" from="-218106748#1" to="11558435#1"/>
    <trip id="motorcycle204" type="motorcycle_motorcycle" depart="362.31" departLane="best" from="37458955#0" to="11553052#1"/>
    <trip id="motorcycle205" type="motorcycle_motorcycle" depart="364.08" departLane="best" from="707448988#2" to="710176322"/>
    <trip id="motorcycle206" type="motorcycle_motorcycle" depart="365.86" departLane="best" departSpeed="max" from="707348510" to="11009523"/>
    <trip id="motorcycle207" type="motorcycle_motorcycle" depart="367.63" departLane="best" departSpeed="max" from="-601595923#1" to="-704134620"/>
    <trip id="motorcycle208" type="motorcycle_motorcycle" depart="369.41" departLane="best" departSpeed="max" from="-601595923#1" to="11558435#1"/>
    <trip id="motorcycle209" type="motorcycle_motorcycle" depart="371.19" departLane="best" from="772336423#0" to="-944122214#0"/>
    <trip id="motorcycle211" type="motorcycle_motorcycle" depart="374.74" departLane="best" departSpeed="max" from="-601595923#1" to="704134619"/>
    <trip id="motorcycle212" type="motorcycle_motorcycle" depart="376.51" departLane="best" departSpeed="max" from="211891422" to="11009523"/>
    <trip id="motorcycle214" type="motorcycle_motorcycle" depart="380.07" departLane="best" departSpeed="max" from="707348510" to="710176322"/>
    <trip id="motorcycle215" type="motorcycle_motorcycle" depart="381.84" departLane="best" departSpeed="max" from="-218106748#1" to="11558435#1"/>
    <trip id="motorcycle216" type="motorcycle_motorcycle" depart="383.62" departLane="best" departSpeed="max" from="-601595923#1" to="946030649#1"/>
    <trip id="motorcycle217" type="motorcycle_motorcycle" depart="385.39" departLane="best" departSpeed="max" from="211891422" to="-944122214#0"/>
    <trip id="motorcycle218" type="motorcycle_motorcycle" depart="387.17" departLane="best" departSpeed="max" from="-601595923#1" to="-770552092#1"/>
    <trip id="motorcycle219" type="motorcycle_motorcycle" depart="388.95" departLane="best" departSpeed="max" from="11553022" to="710176322"/>
    <trip id="motorcycle220" type="motorcycle_motorcycle" depart="390.72" departLane="best" departSpeed="max" from="707348510" to="946030649#1"/>
    <trip id="motorcycle221" type="motorcycle_motorcycle" depart="392.50" departLane="best" departSpeed="max" from="211891422" to="946030649#1"/>
    <trip id="motorcycle223" type="motorcycle_motorcycle" depart="396.05" departLane="best" departSpeed="max" from="707348510" to="11558435#1"/>
    <trip id="motorcycle225" type="motorcycle_motorcycle" depart="399.60" departLane="best" departSpeed="max" from="944122214#0" to="710176322"/>
    <trip id="motorcycle226" type="motorcycle_motorcycle" depart="401.38" departLane="best" from="1217914838" to="11009523"/>
    <trip id="motorcycle227" type="motorcycle_motorcycle" depart="403.15" departLane="best" departSpeed="max" from="-601595923#1" to="601595923#0"/>
    <trip id="motorcycle228" type="motorcycle_motorcycle" depart="404.93" departLane="best" departSpeed="max" from="707348510" to="11558435#1"/>
    <trip id="motorcycle229" type="motorcycle_motorcycle" depart="406.71" departLane="best" from="-28924633#1" to="11009523"/>
    <trip id="motorcycle230" type="motorcycle_motorcycle" depart="408.48" departLane="best" departSpeed="max" from="-218106748#1" to="11009523"/>
    <trip id="motorcycle231" type="motorcycle_motorcycle" depart="410.26" departLane="best" departSpeed="max" from="-601595923#1" to="11553052#1"/>
    <trip id="motorcycle232" type="motorcycle_motorcycle" depart="412.03" departLane="best" departSpeed="max" from="211891422" to="-944122214#0"/>
    <trip id="motorcycle233" type="motorcycle_motorcycle" depart="413.81" departLane="best" departSpeed="max" from="-601595923#1" to="601595923#0"/>
    <trip id="motorcycle234" type="motorcycle_motorcycle" depart="415.59" departLane="best" departSpeed="max" from="707348510" to="-944122214#0"/>
    <trip id="motorcycle236" type="motorcycle_motorcycle" depart="419.14" departLane="best" departSpeed="max" from="11553022" to="11009523"/>
    <trip id="motorcycle237" type="motorcycle_motorcycle" depart="420.91" departLane="best" departSpeed="max" from="11553022" to="-946030649#1"/>
    <trip id="motorcycle238" type="motorcycle_motorcycle" depart="422.69" departLane="best" departSpeed="max" from="211891422" to="704134619"/>
    <trip id="motorcycle239" type="motorcycle_motorcycle" depart="424.47" departLane="best" from="898268988#0" to="710176322"/>
    <trip id="motorcycle241" type="motorcycle_motorcycle" depart="428.02" departLane="best" departSpeed="max" from="11553022" to="710176322"/>
    <trip id="motorcycle242" type="motorcycle_motorcycle" depart="429.79" departLane="best" from="788757975#0" to="946030649#1"/>
    <trip id="motorcycle243" type="motorcycle_motorcycle" depart="431.57" departLane="best" departSpeed="max" from="11553022" to="710176322"/>
    <trip id="motorcycle245" type="motorcycle_motorcycle" depart="435.12" departLane="best" departSpeed="max" from="-601595923#1" to="11009523"/>
    <trip id="motorcycle246" type="motorcycle_motorcycle" depart="436.90" departLane="best" departSpeed="max" from="11553022" to="770552092#0"/>
    <trip id="motorcycle248" type="motorcycle_motorcycle" depart="440.45" departLane="best" departSpeed="max" from="11553022" to="11005921#2"/>
    <trip id="motorcycle249" type="motorcycle_motorcycle" depart="442.23" departLane="best" departSpeed="max" from="11553022" to="-944122214#0"/>
    <trip id="motorcycle250" type="motorcycle_motorcycle" depart="444.00" departLane="best" from="28912793" to="707352351"/>
    <trip id="motorcycle251" type="motorcycle_motorcycle" depart="445.78" departLane="best" departSpeed="max" from="11553022" to="601522489#2"/>
    <trip id="motorcycle253" type="motorcycle_motorcycle" depart="449.33" departLane="best" departSpeed="max" from="-218106748#1" to="11558435#1"/>
    <trip id="motorcycle254" type="motorcycle_motorcycle" depart="451.11" departLane="best" departSpeed="max" from="-218106748#1" to="11553052#1"/>