<?xml version="1.0" encoding="UTF-8"?>

<!-- generated on 2025-05-16 00:49:19.843152 by osmWebWizard.py v1_22_0+0002-63e50f52594
<configuration>
    <net-file value="C:\Users\Administrator\Sumo\2025-05-16-00-49-14\osm.net.xml.gz"/>
    <output-trip-file value="C:\Users\Administrator\Sumo\2025-05-16-00-49-14\osm.passenger.trips.xml"/>
    <route-file value="C:\Users\Administrator\Sumo\2025-05-16-00-49-14\osm.passenger.rou.xml"/>
    <prefix value="veh"/>
    <trip-attributes value="departLane=&quot;best&quot;"/>
    <fringe-start-attributes value="departSpeed=&quot;max&quot;"/>
    <vehicle-class value="passenger"/>
    <lanes value="True"/>
    <fringe-factor value="30"/>
    <allow-fringe.min-length value="1000.0"/>
    <via-edge-types value="highway.motorway,highway.motorway_link,highway.trunk_link,highway.primary_link,highway.secondary_link,highway.tertiary_link"/>
    <min-distance value="300.0"/>
    <min-distance.fringe value="10.0"/>
    <remove-loops value="True"/>
    <validate value="True"/>
    <insertion-density value="300.0"/>
</configuration>
-->

<!-- generated on 2025-05-16 00:49:19 by Eclipse SUMO duarouter Version 1.22.0
<duarouterConfiguration xmlns:xsi="http://www.w3.org/2001/XMLSchema-instance" xsi:noNamespaceSchemaLocation="http://sumo.dlr.de/xsd/duarouterConfiguration.xsd">

    <input>
        <net-file value="C:\Users\Administrator\Sumo\2025-05-16-00-49-14\osm.net.xml.gz"/>
        <route-files value="C:\Users\Administrator\Sumo\2025-05-16-00-49-14\osm.passenger.trips.xml"/>
    </input>

    <output>
        <output-file value="C:\Users\Administrator\Sumo\2025-05-16-00-49-14\osm.passenger.trips.xml.tmp"/>
        <alternatives-output value="NUL"/>
        <write-trips value="true"/>
    </output>

    <processing>
        <remove-loops value="true"/>
    </processing>

    <time>
        <begin value="0.0"/>
        <end value="3600.0"/>
    </time>

    <report>
        <no-warnings value="true"/>
        <ignore-errors value="true"/>
        <no-step-log value="true"/>
    </report>

</duarouterConfiguration>
-->

<routes xmlns:xsi="http://www.w3.org/2001/XMLSchema-instance" xsi:noNamespaceSchemaLocation="http://sumo.dlr.de/xsd/routes_file.xsd">
    <vType id="emergency" vClass="emergency" maxSpeed="60"/>
    <vType id="veh_passenger" vClass="passenger" maxSpeed="50"/>
    <trip id="veh0" type="veh_passenger" depart="0.00" departLane="best" departSpeed="max" from="-218106748#1" to="11009523"/>
    <trip id="veh1" type="veh_passenger" depart="2.37" departLane="best" from="707448985" to="710176322"/>
    <trip id="veh2" type="veh_passenger" depart="4.74" departLane="best" departSpeed="max" from="11553022" to="11005921#2"/>
    <trip id="veh4" type="veh_passenger" depart="9.47" departLane="best" from="707448987#1" to="710176322"/>
    <trip id="veh7" type="veh_passenger" depart="16.58" departLane="best" departSpeed="max" from="-218106748#1" to="11009523"/>
    <trip id="veh8" type="veh_passenger" depart="18.94" departLane="best" departSpeed="max" from="-601595923#1" to="710176322"/>
    <trip id="veh9" type="veh_passenger" depart="21.31" departLane="best" departSpeed="max" from="-601595923#1" to="11558435#1"/>
    <trip id="veh10" type="veh_passenger" depart="23.68" departLane="best" departSpeed="max" from="211891422" to="710176322"/>
    <trip id="veh11" type="veh_passenger" depart="26.05" departLane="best" departSpeed="max" from="707348510" to="11558435#1"/>
    <trip id="veh13" type="veh_passenger" depart="30.78" departLane="best" departSpeed="max" from="707348510" to="11558435#1"/>
    <trip id="veh16" type="veh_passenger" depart="37.89" departLane="best" departSpeed="max" from="11553022" to="-944122214#0"/>
    <trip id="veh17" type="veh_passenger" depart="40.26" departLane="best" departSpeed="max" from="211891422" to="710176322"/>
    <trip id="veh18" type="veh_passenger" depart="42.62" departLane="best" from="951487948#2" to="710176322"/>
    <trip id="veh20" type="veh_passenger" depart="47.36" departLane="best" departSpeed="max" from="-218106748#1" to="707448988#0"/>
    <trip id="veh21" type="veh_passenger" depart="49.73" departLane="best" departSpeed="max" from="211891422" to="710176322"/>
    <trip id="veh22" type="veh_passenger" depart="52.10" departLane="best" departSpeed="max" from="211891422" to="601522489#0"/>
    <trip id="veh24" type="veh_passenger" depart="56.83" departLane="best" departSpeed="max" from="11553022" to="710176322"/>
    <trip id="veh25" type="veh_passenger" depart="59.20" departLane="best" departSpeed="max" from="211891422" to="11558435#1"/>
    <trip id="veh26" type="veh_passenger" depart="61.57" departLane="best" departSpeed="max" from="211891422" to="710176322"/>
    <trip id="veh27" type="veh_passenger" depart="63.94" departLane="best" departSpeed="max" from="-601595923#1" to="11553052#1"/>
    <trip id="veh28" type="veh_passenger" depart="66.30" departLane="best" departSpeed="max" from="211891422" to="710176322"/>
    <trip id="veh30" type="veh_passenger" depart="71.04" departLane="best" departSpeed="max" from="-601595923#1" to="946030649#1"/>
    <trip id="veh31" type="veh_passenger" depart="73.41" departLane="best" departSpeed="max" from="-218106748#1" to="11009523"/>
    <trip id="veh32" type="veh_passenger" depart="75.78" departLane="best" departSpeed="max" from="11553022" to="11558435#1"/>
    <trip id="veh33" type="veh_passenger" depart="78.14" departLane="best" departSpeed="max" from="707348510" to="11553052#1"/>
    <trip id="veh34" type="veh_passenger" depart="80.51" departLane="best" departSpeed="max" from="11553022" to="710176322"/>
    <trip id="veh35" type="veh_passenger" depart="82.88" departLane="best" departSpeed="max" from="-218106748#1" to="37458955#0"/>
    <trip id="veh36" type="veh_passenger" depart="85.25" departLane="best" departSpeed="max" from="-218106748#1" to="11009523"/>
    <trip id="veh37" type="emergency" depart="87.62" departLane="best" departSpeed="max" from="11553022" to="11005921#2"/>
    <trip id="veh38" type="veh_passenger" depart="89.98" departLane="best" departSpeed="max" from="211891422" to="218106748#0"/>
    <trip id="veh41" type="veh_passenger" depart="97.09" departLane="best" departSpeed="max" from="11553022" to="-944122214#0"/>
    <trip id="veh42" type="veh_passenger" depart="99.46" departLane="best" departSpeed="max" from="-601595923#1" to="946030649#1"/>
    <trip id="veh43" type="veh_passenger" depart="101.82" departLane="best" departSpeed="max" from="-218106748#1" to="11009523"/>
    <trip id="veh47" type="veh_passenger" depart="111.30" departLane="best" departSpeed="max" from="707348510" to="11553052#1"/>
    <trip id="veh50" type="veh_passenger" depart="118.40" departLane="best" departSpeed="max" from="11553022" to="710176322"/>
    <trip id="veh51" type="veh_passenger" depart="120.77" departLane="best" departSpeed="max" from="211891422" to="710176322"/>
    <trip id="veh52" type="veh_passenger" depart="123.14" departLane="best" departSpeed="max" from="11553022" to="-944122214#0"/>
    <trip id="veh53" type="veh_passenger" depart="125.50" departLane="best" departSpeed="max" from="707348510" to="11553052#1"/>
    <trip id="veh54" type="veh_passenger" depart="127.87" departLane="best" departSpeed="max" from="707348510" to="11553052#1"/>
    <trip id="veh55" type="veh_passenger" depart="130.24" departLane="best" departSpeed="max" from="11553022" to="11558435#1"/>
    <trip id="veh56" type="veh_passenger" depart="132.61" departLane="best" departSpeed="max" from="-601595923#1" to="11558435#1"/>
    <trip id="veh58" type="veh_passenger" depart="137.34" departLane="best" departSpeed="max" from="707348510" to="601522489#0"/>
    <trip id="veh60" type="veh_passenger" depart="142.08" departLane="best" from="707448988#1" to="710176322"/>
    <trip id="veh61" type="veh_passenger" depart="144.45" departLane="best" from="898268988#0" to="-37458955#0"/>
    <trip id="veh62" type="veh_passenger" depart="146.82" departLane="best" departSpeed="max" from="11553022" to="601522489#2"/>
    <trip id="veh64" type="veh_passenger" depart="151.55" departLane="best" departSpeed="max" from="-601595923#1" to="946030649#1"/>
    <trip id="veh65" type="veh_passenger" depart="153.92" departLane="best" departSpeed="max" from="211891422" to="710176322"/>
    <trip id="veh66" type="veh_passenger" depart="156.29" departLane="best" departSpeed="max" from="11553022" to="710176322"/>
    <trip id="veh67" type="veh_passenger" depart="158.66" departLane="best" departSpeed="max" from="211891422" to="710176322"/>
    <trip id="veh68" type="veh_passenger" depart="161.02" departLane="best" departSpeed="max" from="211891422" to="-704134620"/>
    <trip id="veh70" type="veh_passenger" depart="165.76" departLane="best" departSpeed="max" from="11553022" to="710176322"/>
    <trip id="veh71" type="veh_passenger" depart="168.13" departLane="best" departSpeed="max" from="-218106748#1" to="707448988#2"/>
    <trip id="veh72" type="veh_passenger" depart="170.50" departLane="best" departSpeed="max" from="-601595923#1" to="601522489#0"/>
    <trip id="veh73" type="veh_passenger" depart="172.86" departLane="best" departSpeed="max" from="707348510" to="11558435#1"/>
    <trip id="veh74" type="veh_passenger" depart="175.23" departLane="best" departSpeed="max" from="11553022" to="-944122214#0"/>
    <trip id="veh76" type="veh_passenger" depart="179.97" departLane="best" from="951487948#2" to="11558435#1"/>
    <trip id="veh78" type="veh_passenger" depart="184.71" departLane="best" departSpeed="max" from="-601595923#1" to="710176322"/>
    <trip id="veh79" type="veh_passenger" depart="187.07" departLane="best" departSpeed="max" from="-601595923#1" to="704134621#1"/>
    <trip id="veh80" type="veh_passenger" depart="189.44" departLane="best" departSpeed="max" from="11553022" to="710176322"/>
    <trip id="veh81" type="veh_passenger" depart="191.81" departLane="best" departSpeed="max" from="944122214#0" to="11558435#1"/>
    <trip id="veh82" type="veh_passenger" depart="194.18" departLane="best" departSpeed="max" from="707348510" to="11558435#1"/>
    <trip id="veh83" type="veh_passenger" depart="196.55" departLane="best" departSpeed="max" from="211891422" to="11558435#1"/>
    <trip id="veh84" type="veh_passenger" depart="198.91" departLane="best" departSpeed="max" from="211891422" to="11558435#1"/>
    <trip id="veh86" type="veh_passenger" depart="203.65" departLane="best" from="704134621#0" to="770552094#1"/>
    <trip id="veh87" type="veh_passenger" depart="206.02" departLane="best" departSpeed="max" from="11553022" to="710176322"/>
    <trip id="veh88" type="veh_passenger" depart="208.39" departLane="best" departSpeed="max" from="211891422" to="601522492#1"/>
    <trip id="veh89" type="veh_passenger" depart="210.75" departLane="best" departSpeed="max" from="211891422" to="710176322"/>
    <trip id="veh90" type="veh_passenger" depart="213.12" departLane="best" departSpeed="max" from="11553022" to="-601595922#1"/>
    <trip id="veh91" type="veh_passenger" depart="215.49" departLane="best" departSpeed="max" from="707348510" to="11553052#1"/>
    <trip id="veh92" type="veh_passenger" depart="217.86" departLane="best" departSpeed="max" from="211891422" to="710176322"/>
    <trip id="veh93" type="veh_passenger" depart="220.23" departLane="best" departSpeed="max" from="211891422" to="710176322"/>
    <trip id="veh94" type="veh_passenger" depart="222.59" departLane="best" departSpeed="max" from="707348510" to="11553052#1"/>
    <trip id="veh95" type="veh_passenger" depart="224.96" departLane="best" departSpeed="max" from="707348510" to="11553052#1"/>
    <trip id="veh96" type="veh_passenger" depart="227.33" departLane="best" departSpeed="max" from="707348510" to="11553052#1"/>
    <trip id="veh97" type="veh_passenger" depart="229.70" departLane="best" departSpeed="max" from="11553022" to="-944122214#0"/>
    <trip id="veh98" type="veh_passenger" depart="232.07" departLane="best" departSpeed="max" from="211891422" to="710176322"/>
    <trip id="veh99" type="veh_passenger" depart="234.43" departLane="best" from="-704134620" to="11009523"/>
    <trip id="veh100" type="veh_passenger" depart="236.80" departLane="best" departSpeed="max" from="211891422" to="710176322"/>
    <trip id="veh101" type="veh_passenger" depart="239.17" departLane="best" departSpeed="max" from="11553022" to="-944122214#0"/>
    <trip id="veh103" type="veh_passenger" depart="243.91" departLane="best" departSpeed="max" from="211891422" to="218106748#0"/>
    <trip id="veh105" type="veh_passenger" depart="248.64" departLane="best" from="707448988#2" to="11558435#1"/>
    <trip id="veh106" type="veh_passenger" depart="251.01" departLane="best" departSpeed="max" from="-218106748#1" to="707448988#0"/>
    <trip id="veh107" type="veh_passenger" depart="253.38" departLane="best" departSpeed="max" from="707348510" to="704134621#0"/>
    <trip id="veh108" type="veh_passenger" depart="255.75" departLane="best" from="951487948#0" to="11553052#1"/>
    <trip id="veh109" type="veh_passenger" depart="258.11" departLane="best" departSpeed="max" from="-601595923#1" to="11553052#1"/>
    <trip id="veh110" type="veh_passenger" depart="260.48" departLane="best" departSpeed="max" from="11553022" to="-944122214#0"/>
    <trip id="veh111" type="veh_passenger" depart="262.85" departLane="best" departSpeed="max" from="707348510" to="11553052#1"/>
    <trip id="veh112" type="veh_passenger" depart="265.22" departLane="best" departSpeed="max" from="211891422" to="710176322"/>
    <trip id="veh115" type="veh_passenger" depart="272.32" departLane="best" departSpeed="max" from="11553022" to="710176322"/>
    <trip id="veh116" type="veh_passenger" depart="274.69" departLane="best" from="951487948#0" to="710176322"/>
    <trip id="veh117" type="veh_passenger" depart="277.06" departLane="best" departSpeed="max" from="211891422" to="11558435#1"/>
    <trip id="veh118" type="veh_passenger" depart="279.43" departLane="best" departSpeed="max" from="211891422" to="710176322"/>
    <trip id="veh119" type="veh_passenger" depart="281.79" departLane="best" departSpeed="max" from="-601595923#1" to="946030649#1"/>
    <trip id="veh120" type="veh_passenger" depart="284.16" departLane="best" from="601522492#2" to="11009523"/>
    <trip id="veh121" type="veh_passenger" depart="286.53" departLane="best" from="951487948#0" to="946030649#1"/>
    <trip id="veh122" type="veh_passenger" depart="288.90" departLane="best" departSpeed="max" from="211891422" to="11558435#1"/>
    <trip id="veh123" type="veh_passenger" depart="291.27" departLane="best" departSpeed="max" from="11553022" to="710176322"/>
    <trip id="veh124" type="veh_passenger" depart="293.63" departLane="best" departSpeed="max" from="211891422" to="11558435#1"/>
    <trip id="veh125" type="veh_passenger" depart="296.00" departLane="best" from="29279246#1" to="11009523"/>
    <trip id="veh126" type="veh_passenger" depart="298.37" departLane="best" from="707448985" to="11558435#1"/>
    <trip id="veh127" type="veh_passenger" depart="300.74" departLane="best" departSpeed="max" from="707348510" to="11558435#1"/>
    <trip id="veh128" type="veh_passenger" depart="303.11" departLane="best" departSpeed="max" from="11553022" to="710176322"/>
    <trip id="veh129" type="veh_passenger" depart="305.47" departLane="best" departSpeed="max" from="-218106748#1" to="707448988#0"/>
    <trip id="veh130" type="veh_passenger" depart="307.84" departLane="best" departSpeed="max" from="11553022" to="11558435#1"/>
    <trip id="veh131" type="veh_passenger" depart="310.21" departLane="best" from="28912793" to="710176322"/>
    <trip id="veh132" type="veh_passenger" depart="312.58" departLane="best" departSpeed="max" from="-601595923#1" to="37458955#1"/>
    <trip id="veh133" type="veh_passenger" depart="314.95" departLane="best" departSpeed="max" from="-601595923#1" to="218106748#0"/>
    <trip id="veh135" type="veh_passenger" depart="319.68" departLane="best" from="898268988#0" to="11558435#1"/>
    <trip id="veh137" type="veh_passenger" depart="324.42" departLane="best" from="951487948#2" to="11553052#1"/>
    <trip id="veh139" type="veh_passenger" depart="329.15" departLane="best" departSpeed="max" from="11553022" to="710176322"/>
    <trip id="veh140" type="veh_passenger" depart="331.52" departLane="best" departSpeed="max" from="707348510" to="11553052#1"/>
    <trip id="veh141" type="veh_passenger" depart="333.89" departLane="best" departSpeed="max" from="11553022" to="710176322"/>
    <trip id="veh142" type="veh_passenger" depart="336.26" departLane="best" from="707448985" to="710176322"/>
    <trip id="veh143" type="veh_passenger" depart="338.63" departLane="best" departSpeed="max" from="11553022" to="-944122214#0"/>
    <trip id="veh145" type="veh_passenger" depart="343.36" departLane="best" departSpeed="max" from="11553022" to="710176322"/>
    <trip id="veh147" type="veh_passenger" depart="348.10" departLane="best" departSpeed="max" from="211891422" to="710176322"/>
    <trip id="veh148" type="veh_passenger" depart="350.47" departLane="best" departSpeed="max" from="11553022" to="11558435#1"/>
    <trip id="veh149" type="veh_passenger" depart="352.83" departLane="best" departSpeed="max" from="-601595923#1" to="946030649#1"/>
    <trip id="veh150" type="veh_passenger" depart="355.20" departLane="best" from="-37458955#0" to="772336423#0"/>
    <trip id="veh151" type="veh_passenger" depart="357.57" departLane="best" departSpeed="max" from="-601595923#1" to="-29279246#1"/>
    <trip id="veh152" type="veh_passenger" depart="359.94" departLane="best" departSpeed="max" from="944122214#0" to="11558435#1"/>
    <trip id="veh153" type="veh_passenger" depart="362.31" departLane="best" departSpeed="max" from="211891422" to="11558435#1"/>
    <trip id="veh155" type="veh_passenger" depart="367.04" departLane="best" from="-37458955#1" to="710176322"/>
    <trip id="veh156" type="veh_passenger" depart="369.41" departLane="best" departSpeed="max" from="11553022" to="11558435#1"/>
    <trip id="veh157" type="veh_passenger" depart="371.78" departLane="best" departSpeed="max" from="-601595923#1" to="601595922#1"/>
    <trip id="veh158" type="veh_passenger" depart="374.15" departLane="best" departSpeed="max" from="707348510" to="770552095#6"/>
    <trip id="veh159" type="veh_passenger" depart="376.51" departLane="best" departSpeed="max" from="211891422" to="11558435#1"/>
    <trip id="veh161" type="veh_passenger" depart="381.25" departLane="best" departSpeed="max" from="211891422" to="-29279246#1"/>
    <trip id="veh162" type="veh_passenger" depart="383.62" departLane="best" from="601522492#2" to="-944122214#0"/>
    <trip id="veh163" type="veh_passenger" depart="385.99" departLane="best" departSpeed="max" from="211891422" to="710176322"/>
    <trip id="veh164" type="veh_passenger" depart="388.35" departLane="best" departSpeed="max" from="11553022" to="11005921#1"/>
    <trip id="veh165" type="veh_passenger" depart="390.72" departLane="best" from="-37458955#0" to="710176322"/>
    <trip id="veh167" type="veh_passenger" depart="395.46" departLane="best" departSpeed="max" from="11553022" to="-944122214#0"/>
    <trip id="veh168" type="veh_passenger" depart="397.83" departLane="best" departSpeed="max" from="11553022" to="710176322"/>
    <trip id="veh169" type="veh_passenger" depart="400.19" departLane="best" departSpeed="max" from="707348510" to="770552095#6"/>
    <trip id="veh170" type="veh_passenger" depart="402.56" departLane="best" departSpeed="max" from="-601595923#1" to="770552095#2"/>
    <trip id="veh171" type="veh_passenger" depart="404.93" departLane="best" departSpeed="max" from="11553022" to="710176322"/>
    <trip id="veh172" type="veh_passenger" depart="407.30" departLane="best" from="-37458955#0" to="710176322"/>
    <trip id="veh173" type="veh_passenger" depart="409.67" departLane="best" departSpeed="max" from="707348510" to="11553052#1"/>
    <trip id="veh175" type="veh_passenger" depart="414.40" departLane="best" from="704134620" to="-601595922#2"/>
    <trip id="veh176" type="veh_passenger" depart="416.77" departLane="best" departSpeed="max" from="211891422" to="11558435#1"/>
    <trip id="veh177" type="veh_passenger" depart="419.14" departLane="best" departSpeed="max" from="11553022" to="710176322"/>
    <trip id="veh178" type="veh_passenger" depart="421.51" departLane="best" departSpeed="max" from="-218106748#1" to="-944122214#0"/>
    <trip id="veh179" type="veh_passenger" depart="423.87" departLane="best" departSpeed="max" from="707348510" to="11553052#1"/>
    <trip id="veh180" type="veh_passenger" depart="426.24" departLane="best" from="1217914838" to="-704134620"/>
    <trip id="veh181" type="veh_passenger" depart="428.61" departLane="best" departSpeed="max" from="-601595923#1" to="11558435#1"/>
    <trip id="veh183" type="veh_passenger" depart="433.35" departLane="best" departSpeed="max" from="707348510" to="11558435#1"/>
    <trip id="veh184" type="veh_passenger" depart="435.71" departLane="best" departSpeed="max" from="-601595923#1" to="-29279246#1"/>
    <trip id="veh185" type="veh_passenger" depart="438.08" departLane="best" departSpeed="max" from="11553022" to="710176322"/>
    <trip id="veh187" type="veh_passenger" depart="442.82" departLane="best" departSpeed="max" from="211891422" to="601522489#0"/>
    <trip id="veh188" type="veh_passenger" depart="445.19" departLane="best" departSpeed="max" from="211891422" to="710176322"/>
    <trip id="veh189" type="veh_passenger" depart="447.55" departLane="best" from="707448985" to="710176322"/>
    <trip id="veh190" type="veh_passenger" depart="449.92" departLane="best" departSpeed="max" from="11553022" to="601522489#2"/>
    <trip id="veh192" type="veh_passenger" depart="454.66" departLane="best" departSpeed="max" from="11553022" to="710176322"/>
    <trip id="veh193" type="veh_passenger" depart="457.03" departLane="best" departSpeed="max" from="-601595923#1" to="11558435#1"/>
    <trip id="veh194" type="veh_passenger" depart="459.39" departLane="best" departSpeed="max" from="11553022" to="11558435#1"/>
    <trip id="veh195" type="veh_passenger" depart="461.76" departLane="best" departSpeed="max" from="-218106748#1" to="-944122214#0"/>
    <trip id="veh196" type="veh_passenger" depart="464.13" departLane="best" departSpeed="max" from="707348510" to="11553052#1"/>
    <trip id="veh197" type="veh_passenger" depart="466.50" departLane="best" from="898268988#0" to="770552095#7"/>
    <trip id="veh199" type="veh_passenger" depart="471.23" departLane="best" departSpeed="max" from="-601595923#1" to="11558435#1"/>
    <trip id="veh201" type="veh_passenger" depart="475.97" departLane="best" departSpeed="max" from="11553022" to="710176322"/>
    <trip id="veh202" type="veh_passenger" depart="478.34" departLane="best" from="707448985" to="710176322"/>
    <trip id="veh203" type="veh_passenger" depart="480.71" departLane="best" departSpeed="max" from="11553022" to="11558435#1"/>
    <trip id="veh204" type="veh_passenger" depart="483.07" departLane="best" from="-37458955#1" to="710176322"/>
    <trip id="veh205" type="veh_passenger" depart="485.44" departLane="best" from="770552092#0" to="710176322"/>
    <trip id="veh206" type="veh_passenger" depart="487.81" departLane="best" departSpeed="max" from="211891422" to="11558435#1"/>
    <trip id="veh207" type="veh_passenger" depart="490.18" departLane="best" from="707448987#1" to="601522489#1"/>
    <trip id="veh210" type="veh_passenger" depart="497.28" departLane="best" departSpeed="max" from="707348510" to="11553052#1"/>
    <trip id="veh211" type="veh_passenger" depart="499.65" departLane="best" from="896872743" to="11005921#0"/>
    <trip id="veh212" type="veh_passenger" depart="502.02" departLane="best" departSpeed="max" from="11553022" to="-601595922#1"/>
    <trip id="veh213" type="veh_passenger" depart="504.39" departLane="best" departSpeed="max" from="-601595923#1" to="11553052#1"/>
    <trip id="veh214" type="veh_passenger" depart="506.75" departLane="best" departSpeed="max" from="-601595923#1" to="710176322"/>
    <trip id="veh215" type="veh_passenger" depart="509.12" departLane="best" departSpeed="max" from="-601595923#1" to="11553052#1"/>
    <trip id="veh216" type="veh_passenger" depart="511.49" departLane="best" departSpeed="max" from="211891422" to="710176322"/>
    <trip id="veh218" type="veh_passenger" depart="516.23" departLane="best" departSpeed="max" from="11553022" to="11558435#1"/>
    <trip id="veh219" type="veh_passenger" depart="518.59" departLane="best" departSpeed="max" from="211891422" to="601595922#2"/>
    <trip id="veh220" type="veh_passenger" depart="520.96" departLane="best" departSpeed="max" from="11553022" to="601522489#1"/>
    <trip id="veh221" type="veh_passenger" depart="523.33" departLane="best" departSpeed="max" from="707348510" to="11558435#1"/>
    <trip id="veh222" type="veh_passenger" depart="525.70" departLane="best" departSpeed="max" from="-601595923#1" to="710176322"/>
    <trip id="veh223" type="veh_passenger" depart="528.07" departLane="best" departSpeed="max" from="211891422" to="710176322"/>
    <trip id="veh224" type="veh_passenger" depart="530.43" departLane="best" departSpeed="max" from="-218106748#1" to="11009523"/>
    <trip id="veh225" type="veh_passenger" depart="532.80" departLane="best" departSpeed="max" from="11553022" to="710176322"/>
    <trip id="veh226" type="veh_passenger" depart="535.17" departLane="best" departSpeed="max" from="-601595923#1" to="11558435#1"/>
    <trip id="veh227" type="veh_passenger" depart="537.54" departLane="best" departSpeed="max" from="211891422" to="710176322"/>
    <trip id="veh228" type="veh_passenger" depart="539.91" departLane="best" departSpeed="max" from="211891422" to="710176322"/>
    <trip id="veh229" type="veh_passenger" depart="542.27" departLane="best" from="951487948#2" to="11553052#1"/>
    <trip id="veh231" type="veh_passenger" depart="547.01" departLane="best" departSpeed="max" from="-218106748#1" to="707448988#1"/>
    <trip id="veh232" type="veh_passenger" depart="549.38" departLane="best" departSpeed="max" from="11553022" to="710176322"/>
    <trip id="veh233" type="veh_passenger" depart="551.75" departLane="best" departSpeed="max" from="-601595923#1" to="704134621#1"/>
    <trip id="veh234" type="veh_passenger" depart="554.12" departLane="best" departSpeed="max" from="707348510" to="-704134620"/>
    <trip id="veh235" type="veh_passenger" depart="556.48" departLane="best" departSpeed="max" from="11553022" to="11558435#1"/>
    <trip id="veh236" type="veh_passenger" depart="558.85" departLane="best" departSpeed="max" from="11553022" to="710176322"/>
    <trip id="veh237" type="veh_passenger" depart="561.22" departLane="best" departSpeed="max" from="11553022" to="-944122214#0"/>
    <trip id="veh239" type="veh_passenger" depart="565.96" departLane="best" from="-28912793" to="710176322"/>
    <trip id="veh240" type="veh_passenger" depart="568.32" departLane="best" departSpeed="max" from="11553022" to="-944122214#0"/>
    <trip id="veh242" type="veh_passenger" depart="573.06" departLane="best" departSpeed="max" from="-601595923#1" to="710176322"/>
    <trip id="veh244" type="veh_passenger" depart="577.80" departLane="best" departSpeed="max" from="11553022" to="710176322"/>
    <trip id="veh245" type="veh_passenger" depart="580.16" departLane="best" from="951487948#2" to="710176322"/>
    <trip id="veh246" type="veh_passenger" depart="582.53" departLane="best" departSpeed="max" from="211891422" to="710176322"/>
    <trip id="veh247" type="veh_passenger" depart="584.90" departLane="best" from="707448988#2" to="-944122214#0"/>
    <trip id="veh249" type="veh_passenger" depart="589.64" departLane="best" departSpeed="max" from="211891422" to="710176322"/>
    <trip id="veh250" type="veh_passenger" depart="592.00" departLane="best" departSpeed="max" from="-601595923#1" to="946030649#1"/>
    <trip id="veh251" type="veh_passenger" depart="594.37" departLane="best" departSpeed="max" from="-218106748#1" to="-944122214#0"/>
    <trip id="veh252" type="veh_passenger" depart="596.74" departLane="best" departSpeed="max" from="11553022" to="710176322"/>
    <trip id="veh255" type="veh_passenger" depart="603.84" departLane="best" departSpeed="max" from="211891422" to="710176322"/>
    <trip id="veh256" type="veh_passenger" depart="606.21" departLane="best" departSpeed="max" from="707348510" to="11553052#1"/>
    <trip id="veh257" type="veh_passenger" depart="608.58" departLane="best" departSpeed="max" from="-218106748#1" to="-944122214#0"/>
    <trip id="veh258" type="veh_passenger" depart="610.95" departLane="best" departSpeed="max" from="211891422" to="601522492#1"/>
    <trip id="veh259" type="veh_passenger" depart="613.32" departLane="best" departSpeed="max" from="11553022" to="710176322"/>
    <trip id="veh261" type="veh_passenger" depart="618.05" departLane="best" departSpeed="max" from="11553022" to="601522489#0"/>
    <trip id="veh262" type="veh_passenger" depart="620.42" departLane="best" departSpeed="max" from="-601595923#1" to="11553052#1"/>
    <trip id="veh265" type="veh_passenger" depart="627.52" departLane="best" departSpeed="max" from="11553022" to="11558435#1"/>
    <trip id="veh266" type="veh_passenger" depart="629.89" departLane="best" departSpeed="max" from="211891422" to="710176322"/>
    <trip id="veh267" type="veh_passenger" depart="632.26" departLane="best" departSpeed="max" from="944122214#0" to="11558435#1"/>
    <trip id="veh268" type="veh_passenger" depart="634.63" departLane="best" departSpeed="max" from="707348510" to="11553052#1"/>