<?xml version="1.0" encoding="UTF-8"?>

<!-- generated on 2025-05-16 00:49:18 by Eclipse SUMO netconvert Version 1.22.0
<netconvertConfiguration xmlns:xsi="http://www.w3.org/2001/XMLSchema-instance" xsi:noNamespaceSchemaLocation="http://sumo.dlr.de/xsd/netconvertConfiguration.xsd">

    <input>
        <type-files value="${SUMO_HOME}\data\typemap\osmNetconvert.typ.xml"/>
        <osm-files value="osm_bbox.osm.xml.gz"/>
    </input>

    <output>
        <output-file value="osm.net.xml.gz"/>
        <output.street-names value="true"/>
        <output.original-names value="true"/>
    </output>

    <projection>
        <proj.utm value="true"/>
    </projection>

    <processing>
        <geometry.remove value="true"/>
        <roundabouts.guess value="true"/>
    </processing>

    <tls_building>
        <tls.discard-simple value="true"/>
        <tls.join value="true"/>
        <tls.guess-signals value="true"/>
        <tls.default-type value="actuated"/>
    </tls_building>

    <ramp_guessing>
        <ramps.guess value="true"/>
    </ramp_guessing>

    <junctions>
        <junctions.join value="true"/>
        <junctions.corner-detail value="5"/>
    </junctions>

</netconvertConfiguration>
-->

<net version="1.20" junctionCornerDetail="5" limitTurnSpeed="5.50" xmlns:xsi="http://www.w3.org/2001/XMLSchema-instance" xsi:noNamespaceSchemaLocation="http://sumo.dlr.de/xsd/net_file.xsd">

    <location netOffset="-587403.53,-2325341.54" convBoundary="0.00,0.00,523.27,394.04" origBoundary="105.841127,21.026762,105.846165,21.030323" projParameter="+proj=utm +zone=48 +ellps=WGS84 +datum=WGS84 +units=m +no_defs"/>

    <type id="highway.footway" priority="1" numLanes="1" speed="2.78" allow="pedestrian" oneway="1" width="2.00"/>
    <type id="highway.path" priority="1" numLanes="1" speed="5.56" allow="pedestrian bicycle" oneway="0" width="2.00"/>
    <type id="highway.primary" priority="12" numLanes="2" speed="27.78" disallow="tram rail_urban rail rail_electric rail_fast ship container cable_car subway aircraft wheelchair scooter drone" oneway="0"/>
    <type id="highway.residential" priority="3" numLanes="1" speed="13.89" disallow="tram rail_urban rail rail_electric rail_fast ship container cable_car subway aircraft wheelchair scooter drone" oneway="0"/>
    <type id="highway.secondary" priority="11" numLanes="1" speed="27.78" disallow="tram rail_urban rail rail_electric rail_fast ship container cable_car subway aircraft wheelchair scooter drone" oneway="0"/>
    <type id="highway.secondary_link" priority="6" numLanes="1" speed="22.22" disallow="tram rail_urban rail rail_electric rail_fast ship container cable_car subway aircraft wheelchair scooter drone" oneway="0"/>
    <type id="highway.service" priority="1" numLanes="1" speed="5.56" allow="pedestrian delivery bicycle" oneway="0"/>
    <type id="highway.tertiary" priority="10" numLanes="1" speed="22.22" disallow="tram rail_urban rail rail_electric rail_fast ship container cable_car subway aircraft wheelchair scooter drone" oneway="0"/>
    <type id="railway.rail" priority="20" numLanes="1" speed="44.44" allow="rail" oneway="1"/>

    <edge id=":10149108485_0" function="internal">
        <lane id=":10149108485_0_0" index="0" disallow="tram rail_urban rail rail_electric rail_fast ship container cable_car subway aircraft wheelchair scooter drone" speed="5.47" length="10.30" shape="252.23,137.84 248.88,137.48 247.30,138.17 247.47,139.93 249.41,142.76"/>
    </edge>
    <edge id=":10149108485_1" function="internal">
        <lane id=":10149108485_1_0" index="0" disallow="tram rail_urban rail rail_electric rail_fast ship container cable_car subway aircraft wheelchair scooter drone" speed="13.33" length="13.30" shape="238.93,135.07 242.19,136.13 244.81,137.83 247.11,140.07 249.41,142.76"/>
    </edge>
    <edge id=":10149108518_0" function="internal">
        <lane id=":10149108518_0_0" index="0" disallow="tram rail_urban rail rail_electric rail_fast ship container cable_car subway aircraft wheelchair scooter drone" speed="27.78" length="9.33" shape="294.33,202.63 291.96,201.24 290.14,200.62 288.33,200.00 285.96,198.61"/>
        <lane id=":10149108518_0_1" index="1" disallow="tram rail_urban rail rail_electric rail_fast ship container cable_car subway aircraft wheelchair scooter drone" speed="27.78" length="9.33" shape="294.33,202.63 292.25,200.84 291.07,199.32 289.90,197.80 287.82,196.01"/>
    </edge>
    <edge id=":10149108518_2" function="internal">
        <lane id=":10149108518_2_0" index="0" disallow="tram rail_urban rail rail_electric rail_fast ship container cable_car subway aircraft wheelchair scooter drone" speed="3.65" length="1.44" shape="294.33,202.63 293.82,201.28"/>
    </edge>
    <edge id=":10149108518_7" function="internal">
        <lane id=":10149108518_7_0" index="0" disallow="tram rail_urban rail rail_electric rail_fast ship container cable_car subway aircraft wheelchair scooter drone" speed="3.65" length="3.23" shape="293.82,201.28 293.95,200.39 294.74,199.97 296.19,200.02"/>
    </edge>
    <edge id=":10149108518_3" function="internal">
        <lane id=":10149108518_3_0" index="0" disallow="tram rail_urban rail rail_electric rail_fast ship container cable_car subway aircraft wheelchair scooter drone" speed="7.12" length="9.62" shape="298.20,190.99 296.66,194.47 295.81,197.13 295.65,198.98 296.19,200.02"/>
    </edge>
    <edge id=":10149108518_4" function="internal">
        <lane id=":10149108518_4_0" index="0" disallow="tram rail_urban rail rail_electric rail_fast ship container cable_car subway aircraft wheelchair scooter drone" speed="6.73" length="11.00" shape="295.32,189.60 293.26,193.27 291.32,195.57 289.51,196.48 287.82,196.01"/>
    </edge>
    <edge id=":10149108518_5" function="internal">
        <lane id=":10149108518_5_0" index="0" disallow="tram rail_urban rail rail_electric rail_fast ship container cable_car subway aircraft wheelchair scooter drone" speed="27.78" length="12.78" shape="289.36,189.35 291.21,192.22 292.45,195.03 293.85,197.67 296.19,200.02"/>
    </edge>
    <edge id=":10149108518_6" function="internal">
        <lane id=":10149108518_6_0" index="0" disallow="tram rail_urban rail rail_electric rail_fast ship container cable_car subway aircraft wheelchair scooter drone" speed="4.91" length="5.82" shape="289.36,189.35 290.59,191.93 290.67,194.60 290.52,194.86"/>
    </edge>
    <edge id=":10149108518_8" function="internal">
        <lane id=":10149108518_8_0" index="0" disallow="tram rail_urban rail rail_electric rail_fast ship container cable_car subway aircraft wheelchair scooter drone" speed="4.91" length="3.58" shape="290.52,194.86 289.71,196.31 287.82,196.01"/>
    </edge>
    <edge id=":10155016699_0" function="internal">
        <lane id=":10155016699_0_0" index="0" allow="rail" speed="8.33" length="6.63" shape="48.05,168.10 49.10,169.75 49.96,170.78 50.96,171.70 52.41,173.04"/>
    </edge>
    <edge id=":10155016700_0" function="internal">
        <lane id=":10155016700_0_0" index="0" allow="rail" speed="8.33" length="7.65" shape="87.55,202.88 93.46,207.73"/>
    </edge>
    <edge id=":10155016706_0" function="internal">
        <lane id=":10155016706_0_0" index="0" disallow="tram rail_urban rail rail_electric rail_fast ship container cable_car subway aircraft wheelchair scooter drone" speed="22.22" length="5.17" shape="201.19,41.67 196.26,43.23"/>
    </edge>
    <edge id=":10155016706_1" function="internal">
        <lane id=":10155016706_1_0" index="0" disallow="tram rail_urban rail rail_electric rail_fast ship container cable_car subway aircraft wheelchair scooter drone" speed="22.22" length="5.17" shape="195.30,40.18 200.23,38.62"/>
    </edge>
    <edge id=":10159370768_0" function="internal">
        <lane id=":10159370768_0_0" index="0" allow="rail" speed="8.33" length="5.32" shape="144.72,246.79 148.91,250.07"/>
    </edge>
    <edge id=":10165813936_0" function="internal">
        <lane id=":10165813936_0_0" index="0" allow="rail" speed="8.33" length="9.23" shape="32.53,150.57 34.22,152.72 35.42,154.16 36.75,155.48 38.81,157.29"/>
    </edge>
    <edge id=":10168769257_0" function="internal">
        <lane id=":10168769257_0_0" index="0" allow="pedestrian bicycle" speed="2.89" length="2.92" width="2.00" shape="168.31,263.99 168.03,263.14 168.15,262.59 168.65,262.35 169.55,262.42"/>
    </edge>
    <edge id=":10168769258_0" function="internal">
        <lane id=":10168769258_0_0" index="0" allow="rail" speed="8.33" length="3.87" shape="164.21,262.62 167.20,265.08"/>
    </edge>
    <edge id=":103012716_0" function="internal">
        <lane id=":103012716_0_0" index="0" disallow="tram rail_urban rail rail_electric rail_fast ship container cable_car subway aircraft wheelchair scooter drone" speed="6.61" length="9.17" shape="290.05,379.36 289.85,376.64 290.42,374.53 291.75,373.06 293.86,372.20"/>
    </edge>
    <edge id=":103012716_1" function="internal">
        <lane id=":103012716_1_0" index="0" disallow="tram rail_urban rail rail_electric rail_fast ship container cable_car subway aircraft wheelchair scooter drone" speed="3.65" length="4.67" shape="294.54,375.33 293.20,374.80 292.64,374.11 292.86,373.24 293.86,372.20"/>
    </edge>
    <edge id=":104771041_0" function="internal">
        <lane id=":104771041_0_0" index="0" allow="rail" speed="8.33" length="15.38" shape="94.82,208.82 106.84,218.41"/>
    </edge>
    <edge id=":104771041_1" function="internal">
        <lane id=":104771041_1_0" index="0" disallow="tram rail_urban rail rail_electric rail_fast ship container cable_car subway aircraft wheelchair scooter drone" speed="27.78" length="13.51" shape="94.03,212.97 106.97,209.07"/>
        <lane id=":104771041_1_1" index="1" disallow="tram rail_urban rail rail_electric rail_fast ship container cable_car subway aircraft wheelchair scooter drone" speed="27.78" length="13.51" shape="94.95,216.03 107.89,212.13"/>
        <lane id=":104771041_1_2" index="2" disallow="tram rail_urban rail rail_electric rail_fast ship container cable_car subway aircraft wheelchair scooter drone" speed="27.78" length="13.51" shape="95.88,219.10 108.81,215.19"/>
    </edge>
    <edge id=":10584131492_0" function="internal">
        <lane id=":10584131492_0_0" index="0" disallow="tram rail_urban rail rail_electric rail_fast ship container cable_car subway aircraft wheelchair scooter drone" speed="7.76" length="9.19" shape="251.40,179.57 248.77,178.19 246.46,177.51 244.46,177.53 242.79,178.24"/>
    </edge>
    <edge id=":10584131492_1" function="internal">
        <lane id=":10584131492_1_0" index="0" disallow="tram rail_urban rail rail_electric rail_fast ship container cable_car subway aircraft wheelchair scooter drone" speed="27.78" length="5.94" shape="247.34,176.07 245.92,176.56 244.95,176.93 244.04,177.41 242.79,178.24"/>
        <lane id=":10584131492_1_1" index="1" disallow="tram rail_urban rail rail_electric rail_fast ship container cable_car subway aircraft wheelchair scooter drone" speed="27.78" length="5.94" shape="246.26,173.05 244.60,173.64 243.47,174.08 242.41,174.65 240.95,175.63"/>
        <lane id=":10584131492_1_2" index="2" disallow="tram rail_urban rail rail_electric rail_fast ship container cable_car subway aircraft wheelchair scooter drone" speed="27.78" length="5.94" shape="245.19,170.04 243.28,170.72 241.99,171.23 240.77,171.89 239.10,173.01"/>
    </edge>
    <edge id=":10584131494_0" function="internal">
        <lane id=":10584131494_0_0" index="0" disallow="tram rail_urban rail rail_electric rail_fast ship container cable_car subway aircraft wheelchair scooter drone" speed="11.66" length="2.82" shape="285.80,198.50 285.21,197.94 284.97,197.43 284.80,196.84 284.43,196.09"/>
    </edge>
    <edge id=":10584131494_1" function="internal">
        <lane id=":10584131494_1_0" index="0" disallow="tram rail_urban rail rail_electric rail_fast ship container cable_car subway aircraft wheelchair scooter drone" speed="27.78" length="1.67" shape="287.66,195.89 286.37,194.83"/>
    </edge>
    <edge id=":10584178715_0" function="internal">
        <lane id=":10584178715_0_0" index="0" disallow="tram rail_urban rail rail_electric rail_fast ship container cable_car subway aircraft wheelchair scooter drone" speed="22.22" length="5.14" shape="260.43,185.15 256.05,182.45"/>
    </edge>
    <edge id=":10584178728_0" function="internal">
        <lane id=":10584178728_0_0" index="0" disallow="tram rail_urban rail rail_electric rail_fast ship container cable_car subway aircraft wheelchair scooter drone" speed="27.78" length="4.56" shape="248.10,151.73 245.28,148.14"/>
    </edge>
    <edge id=":10584178729_0" function="internal">
        <lane id=":10584178729_0_0" index="0" disallow="tram rail_urban rail rail_electric rail_fast ship container cable_car subway aircraft wheelchair scooter drone" speed="22.22" length="5.10" shape="263.84,140.47 258.89,139.26"/>
    </edge>
    <edge id=":10584178759_0" function="internal">
        <lane id=":10584178759_0_0" index="0" disallow="tram rail_urban rail rail_electric rail_fast ship container cable_car subway aircraft wheelchair scooter drone" speed="22.22" length="5.17" shape="210.35,157.81 206.48,154.38"/>
    </edge>
    <edge id=":11594082842_0" function="internal">
        <lane id=":11594082842_0_0" index="0" allow="rail" speed="8.33" length="6.35" shape="107.00,218.54 112.04,222.40"/>
    </edge>
    <edge id=":12071777010_0" function="internal">
        <lane id=":12071777010_0_0" index="0" allow="pedestrian bicycle" speed="2.89" length="2.92" width="2.00" shape="329.40,391.19 329.62,392.06 329.48,392.60 328.96,392.81 328.07,392.68"/>
    </edge>
    <edge id=":12071777115_0" function="internal">
        <lane id=":12071777115_0_0" index="0" allow="pedestrian bicycle" speed="2.89" length="2.92" width="2.00" shape="165.18,267.45 164.90,266.59 165.02,266.05 165.52,265.81 166.42,265.88"/>
    </edge>
    <edge id=":12073089636_0" function="internal">
        <lane id=":12073089636_0_0" index="0" allow="pedestrian bicycle" speed="2.89" length="2.92" width="2.00" shape="319.45,389.21 319.63,390.09 319.46,390.62 318.93,390.80 318.04,390.63"/>
    </edge>
    <edge id=":12089176482_0" function="internal">
        <lane id=":12089176482_0_0" index="0" allow="pedestrian bicycle" speed="5.56" length="5.64" width="2.00" shape="292.12,367.53 287.69,364.04"/>
    </edge>
    <edge id=":12089176482_1" function="internal">
        <lane id=":12089176482_1_0" index="0" allow="pedestrian bicycle" speed="2.89" length="2.92" width="2.00" shape="292.12,367.53 291.84,366.67 291.95,366.12 292.46,365.88 293.36,365.95"/>
    </edge>
    <edge id=":12089176482_2" function="internal">
        <lane id=":12089176482_2_0" index="0" allow="pedestrian bicycle" speed="5.56" length="5.63" width="2.00" shape="288.93,362.47 293.36,365.95"/>
    </edge>
    <edge id=":12089176482_3" function="internal">
        <lane id=":12089176482_3_0" index="0" allow="pedestrian bicycle" speed="2.89" length="2.92" width="2.00" shape="288.93,362.47 289.21,363.33 289.10,363.87 288.59,364.11 287.69,364.04"/>
    </edge>
    <edge id=":2049258210_0" function="internal">
        <lane id=":2049258210_0_0" index="0" disallow="tram rail_urban rail rail_electric rail_fast ship container cable_car subway aircraft wheelchair scooter drone" speed="18.22" length="6.33" shape="183.15,133.54 181.78,132.24 180.84,131.33 179.78,130.61 178.08,129.86"/>
    </edge>
    <edge id=":2049258210_1" function="internal">
        <lane id=":2049258210_1_0" index="0" disallow="tram rail_urban rail rail_electric rail_fast ship container cable_car subway aircraft wheelchair scooter drone" speed="6.04" length="13.08" shape="183.15,133.54 180.01,130.19 179.27,127.93 180.95,126.77 185.03,126.70"/>
    </edge>
    <edge id=":2049258210_2" function="internal">
        <lane id=":2049258210_2_0" index="0" disallow="tram rail_urban rail rail_electric rail_fast ship container cable_car subway aircraft wheelchair scooter drone" speed="22.22" length="6.75" shape="184.74,129.89 182.74,129.92 181.33,130.20 179.97,130.32 178.08,129.86"/>
    </edge>
    <edge id=":2049258210_3" function="internal">
        <lane id=":2049258210_3_0" index="0" disallow="tram rail_urban rail rail_electric rail_fast ship container cable_car subway aircraft wheelchair scooter drone" speed="3.65" length="1.32" shape="184.74,129.89 183.71,129.06"/>
    </edge>
    <edge id=":2049258210_6" function="internal">
        <lane id=":2049258210_6_0" index="0" disallow="tram rail_urban rail rail_electric rail_fast ship container cable_car subway aircraft wheelchair scooter drone" speed="3.65" length="3.36" shape="183.71,129.06 183.61,128.98 183.29,128.15 183.76,127.39 185.03,126.70"/>
    </edge>
    <edge id=":2049258210_4" function="internal">
        <lane id=":2049258210_4_0" index="0" disallow="tram rail_urban rail rail_electric rail_fast ship container cable_car subway aircraft wheelchair scooter drone" speed="22.22" length="5.90" shape="179.22,126.87 180.86,127.24 182.06,127.07 183.28,126.76 185.03,126.70"/>
    </edge>
    <edge id=":2049258210_5" function="internal">
        <lane id=":2049258210_5_0" index="0" disallow="tram rail_urban rail rail_electric rail_fast ship container cable_car subway aircraft wheelchair scooter drone" speed="3.65" length="1.32" shape="179.22,126.87 179.98,127.94"/>
    </edge>
    <edge id=":2049258210_7" function="internal">
        <lane id=":2049258210_7_0" index="0" disallow="tram rail_urban rail rail_electric rail_fast ship container cable_car subway aircraft wheelchair scooter drone" speed="3.65" length="3.36" shape="179.98,127.94 180.06,128.04 180.15,128.93 179.49,129.54 178.08,129.86"/>
    </edge>
    <edge id=":2049259252_0" function="internal">
        <lane id=":2049259252_0_0" index="0" disallow="tram rail_urban rail rail_electric rail_fast ship container cable_car subway aircraft wheelchair scooter drone" speed="22.22" length="5.13" shape="304.80,116.10 303.33,111.25"/>
        <lane id=":2049259252_0_1" index="1" disallow="tram rail_urban rail rail_electric rail_fast ship container cable_car subway aircraft wheelchair scooter drone" speed="22.22" length="5.13" shape="307.88,115.23 306.37,110.26"/>
    </edge>
    <edge id=":2218033247_0" function="internal">
        <lane id=":2218033247_0_0" index="0" disallow="tram rail_urban rail rail_electric rail_fast ship container cable_car subway aircraft wheelchair scooter drone" speed="3.65" length="4.67" shape="524.82,154.06 524.34,155.42 523.67,156.01 522.79,155.82 521.72,154.86"/>
    </edge>
    <edge id=":2218271412_0" function="internal">
        <lane id=":2218271412_0_0" index="0" disallow="tram rail_urban rail rail_electric rail_fast ship container cable_car subway aircraft wheelchair scooter drone" speed="22.22" length="9.33" shape="413.40,273.39 405.32,268.80"/>
        <lane id=":2218271412_0_1" index="1" disallow="tram rail_urban rail rail_electric rail_fast ship container cable_car subway aircraft wheelchair scooter drone" speed="22.22" length="9.33" shape="415.01,270.63 406.87,266.00"/>
    </edge>
    <edge id=":2218271412_2" function="internal">
        <lane id=":2218271412_2_0" index="0" disallow="tram rail_urban rail rail_electric rail_fast ship container cable_car subway aircraft wheelchair scooter drone" speed="6.19" length="7.78" shape="415.01,270.63 412.75,269.08 411.34,267.58 410.78,266.13 411.07,264.73"/>
    </edge>
    <edge id=":2218271412_3" function="internal">
        <lane id=":2218271412_3_0" index="0" disallow="tram rail_urban rail rail_electric rail_fast ship container cable_car subway aircraft wheelchair scooter drone" speed="6.06" length="7.83" shape="413.91,266.21 412.91,267.27 411.41,267.59 409.39,267.16 406.87,266.00"/>
    </edge>
    <edge id=":2218271412_4" function="internal">
        <lane id=":2218271412_4_0" index="0" disallow="tram rail_urban rail rail_electric rail_fast ship container cable_car subway aircraft wheelchair scooter drone" speed="3.65" length="4.67" shape="413.91,266.21 412.64,266.91 411.75,266.89 411.23,266.17 411.07,264.73"/>
    </edge>
    <edge id=":309815200_0" function="internal">
        <lane id=":309815200_0_0" index="0" disallow="tram rail_urban rail rail_electric rail_fast ship container cable_car subway aircraft wheelchair scooter drone" speed="27.78" length="16.60" shape="43.10,172.51 43.01,155.91"/>
        <lane id=":309815200_0_1" index="1" disallow="tram rail_urban rail rail_electric rail_fast ship container cable_car subway aircraft wheelchair scooter drone" speed="27.78" length="16.60" shape="46.30,172.49 46.21,155.89"/>
    </edge>
    <edge id=":309815200_2" function="internal">
        <lane id=":309815200_2_0" index="0" allow="rail" speed="8.33" length="13.54" shape="39.24,157.66 41.84,160.03 44.06,162.40 46.05,164.96 47.95,167.93"/>
    </edge>
    <edge id=":317807045_0" function="internal">
        <lane id=":317807045_0_0" index="0" disallow="tram rail_urban rail rail_electric rail_fast ship container cable_car subway aircraft wheelchair scooter drone" speed="6.29" length="5.13" shape="436.15,213.26 436.80,214.42 437.10,215.61 437.04,216.84 436.62,218.11"/>
    </edge>
    <edge id=":317807045_1" function="internal">
        <lane id=":317807045_1_0" index="0" disallow="tram rail_urban rail rail_electric rail_fast ship container cable_car subway aircraft wheelchair scooter drone" speed="4.01" length="1.71" shape="433.72,216.76 433.86,216.34 433.88,215.93 433.78,215.53 433.56,215.14"/>
    </edge>
    <edge id=":317807048_0" function="internal">
        <lane id=":317807048_0_0" index="0" disallow="tram rail_urban rail rail_electric rail_fast ship container cable_car subway aircraft wheelchair scooter drone" speed="8.28" length="11.04" shape="375.86,135.88 373.67,133.34 371.40,131.71 369.05,131.00 366.63,131.20"/>
    </edge>
    <edge id=":317807048_1" function="internal">
        <lane id=":317807048_1_0" index="0" disallow="tram rail_urban rail rail_electric rail_fast ship container cable_car subway aircraft wheelchair scooter drone" speed="3.65" length="4.67" shape="375.86,135.88 375.81,134.44 376.23,133.65 377.11,133.50 378.46,134.01"/>
    </edge>
    <edge id=":317807048_2" function="internal">
        <lane id=":317807048_2_0" index="0" disallow="tram rail_urban rail rail_electric rail_fast ship container cable_car subway aircraft wheelchair scooter drone" speed="5.90" length="9.10" shape="380.81,127.16 378.41,128.25 377.22,129.76 377.24,131.68 378.46,134.01"/>
    </edge>
    <edge id=":317807048_3" function="internal">
        <lane id=":317807048_3_0" index="0" disallow="tram rail_urban rail rail_electric rail_fast ship container cable_car subway aircraft wheelchair scooter drone" speed="27.78" length="14.66" shape="380.81,127.16 366.63,131.20"/>
        <lane id=":317807048_3_1" index="1" disallow="tram rail_urban rail rail_electric rail_fast ship container cable_car subway aircraft wheelchair scooter drone" speed="27.78" length="14.66" shape="379.89,124.09 365.80,128.11"/>
        <lane id=":317807048_3_2" index="2" disallow="tram rail_urban rail rail_electric rail_fast ship container cable_car subway aircraft wheelchair scooter drone" speed="27.78" length="14.66" shape="378.98,121.02 364.98,125.02"/>
    </edge>
    <edge id=":317968495_0" function="internal">
        <lane id=":317968495_0_0" index="0" disallow="tram rail_urban rail rail_electric rail_fast ship container cable_car subway aircraft wheelchair scooter drone" speed="13.89" length="8.94" shape="260.84,287.74 258.96,285.86 257.64,284.62 256.25,283.45 254.19,281.77"/>
    </edge>
    <edge id=":317968495_1" function="internal">
        <lane id=":317968495_1_0" index="0" allow="pedestrian delivery bicycle" speed="7.39" length="2.94" shape="260.84,287.74 259.41,285.74 259.30,285.27"/>
    </edge>
    <edge id=":317968495_7" function="internal">
        <lane id=":317968495_7_0" index="0" allow="pedestrian delivery bicycle" speed="7.39" length="7.04" shape="259.30,285.27 258.88,283.55 259.26,281.17 260.54,278.61"/>
    </edge>
    <edge id=":317968495_2" function="internal">
        <lane id=":317968495_2_0" index="0" allow="pedestrian delivery bicycle" speed="5.70" length="5.59" shape="263.22,280.36 262.44,281.86 262.16,283.22 262.39,284.43 263.12,285.50"/>
    </edge>
    <edge id=":317968495_3" function="internal">
        <lane id=":317968495_3_0" index="0" allow="pedestrian delivery bicycle" speed="6.78" length="10.68" shape="263.22,280.36 261.25,282.59 259.09,283.57 256.74,283.30 254.19,281.77"/>
    </edge>
    <edge id=":317968495_4" function="internal">
        <lane id=":317968495_4_0" index="0" allow="pedestrian delivery bicycle" speed="3.65" length="4.67" shape="263.22,280.36 261.89,280.93 261.00,280.83 260.55,280.05 260.54,278.61"/>
    </edge>
    <edge id=":317968495_5" function="internal">
        <lane id=":317968495_5_0" index="0" allow="pedestrian delivery bicycle" speed="4.94" length="5.13" shape="256.21,279.29 257.43,280.02 258.56,280.15 259.60,279.68 260.54,278.61"/>
    </edge>
    <edge id=":317968495_6" function="internal">
        <lane id=":317968495_6_0" index="0" disallow="tram rail_urban rail rail_electric rail_fast ship container cable_car subway aircraft wheelchair scooter drone" speed="13.89" length="9.30" shape="256.21,279.29 258.35,281.03 259.79,282.25 261.17,283.54 263.12,285.50"/>
    </edge>
    <edge id=":3877527239_0" function="internal">
        <lane id=":3877527239_0_0" index="0" disallow="tram rail_urban rail rail_electric rail_fast ship container cable_car subway aircraft wheelchair scooter drone" speed="27.78" length="5.00" shape="361.18,251.79 362.03,256.72"/>
        <lane id=":3877527239_0_1" index="1" disallow="tram rail_urban rail rail_electric rail_fast ship container cable_car subway aircraft wheelchair scooter drone" speed="27.78" length="5.00" shape="358.03,252.34 358.88,257.26"/>
    </edge>
    <edge id=":4023305214_0" function="internal">
        <lane id=":4023305214_0_0" index="0" disallow="tram rail_urban rail rail_electric rail_fast ship container cable_car subway aircraft wheelchair scooter drone" speed="25.00" length="0.10" shape="223.29,134.76 223.22,134.75"/>
    </edge>
    <edge id=":4023305214_1" function="internal">
        <lane id=":4023305214_1_0" index="0" disallow="tram rail_urban rail rail_electric rail_fast ship container cable_car subway aircraft wheelchair scooter drone" speed="25.00" length="0.25" shape="223.84,131.61 223.91,131.63 223.95,131.65 224.00,131.67 224.07,131.69"/>
    </edge>
    <edge id=":5703644821_0" function="internal">
        <lane id=":5703644821_0_0" index="0" disallow="tram rail_urban rail rail_electric rail_fast ship container cable_car subway aircraft wheelchair scooter drone" speed="3.65" length="4.67" shape="320.53,0.71 321.91,1.11 322.53,1.76 322.39,2.64 321.48,3.76"/>
    </edge>
    <edge id=":5703662578_0" function="internal">
        <lane id=":5703662578_0_0" index="0" allow="pedestrian delivery bicycle" speed="3.65" length="4.67" shape="486.21,49.72 485.75,51.09 485.08,51.68 484.20,51.50 483.12,50.54"/>
    </edge>
    <edge id=":5703662579_0" function="internal">
        <lane id=":5703662579_0_0" index="0" allow="pedestrian delivery bicycle" speed="3.65" length="4.67" shape="423.92,50.55 422.65,51.24 421.75,51.22 421.23,50.49 421.09,49.05"/>
    </edge>
    <edge id=":5703662583_0" function="internal">
        <lane id=":5703662583_0_0" index="0" allow="pedestrian delivery bicycle" speed="3.90" length="2.66" shape="485.12,23.07 484.82,22.40 484.38,22.00 483.80,21.86 483.08,22.00"/>
    </edge>
    <edge id=":5703662583_1" function="internal">
        <lane id=":5703662583_1_0" index="0" disallow="tram rail_urban rail rail_electric rail_fast ship container cable_car subway aircraft wheelchair scooter drone" speed="3.65" length="4.67" shape="485.12,23.07 485.56,21.69 486.21,21.08 487.09,21.24 488.20,22.17"/>
    </edge>
    <edge id=":5703662583_2" function="internal">
        <lane id=":5703662583_2_0" index="0" allow="pedestrian delivery bicycle" speed="6.07" length="7.97" shape="482.07,18.96 484.23,18.57 485.97,18.97 487.29,20.17 488.20,22.17"/>
    </edge>
    <edge id=":6611608735_0" function="internal">
        <lane id=":6611608735_0_0" index="0" disallow="tram rail_urban rail rail_electric rail_fast ship container cable_car subway aircraft wheelchair scooter drone" speed="27.78" length="5.04" shape="165.47,191.37 170.29,189.91"/>
        <lane id=":6611608735_0_1" index="1" disallow="tram rail_urban rail rail_electric rail_fast ship container cable_car subway aircraft wheelchair scooter drone" speed="27.78" length="5.04" shape="166.40,194.43 171.22,192.97"/>
        <lane id=":6611608735_0_2" index="2" disallow="tram rail_urban rail rail_electric rail_fast ship container cable_car subway aircraft wheelchair scooter drone" speed="27.78" length="5.04" shape="167.33,197.50 172.15,196.04"/>
    </edge>
    <edge id=":6611608743_0" function="internal">
        <lane id=":6611608743_0_0" index="0" disallow="tram rail_urban rail rail_electric rail_fast ship container cable_car subway aircraft wheelchair scooter drone" speed="27.78" length="11.13" shape="80.43,347.31 78.12,349.34 76.21,350.37 74.30,351.40 72.00,353.44"/>
        <lane id=":6611608743_0_1" index="1" disallow="tram rail_urban rail rail_electric rail_fast ship container cable_car subway aircraft wheelchair scooter drone" speed="27.78" length="11.13" shape="78.93,344.21 76.36,346.53 74.27,347.74 72.18,348.97 69.63,351.29"/>
    </edge>
    <edge id=":6611608743_2" function="internal">
        <lane id=":6611608743_2_0" index="0" disallow="tram rail_urban rail rail_electric rail_fast ship container cable_car subway aircraft wheelchair scooter drone" speed="3.42" length="2.26" shape="77.43,341.12 75.80,339.55"/>
    </edge>
    <edge id=":6611608743_5" function="internal">